FXR_12
  xed2sdf           3D
 
 57 61  0  0  0  0  0  0  0  0999 V2000
  -14.5901   51.9440    1.4491 C   0  0  0  0  0  0  0  0  0  0  0  0
  -14.4501   51.7310   -0.0290 C   0  0  0  0  0  0  0  0  0  0  0  0
  -14.4870   52.9630   -0.6740 C   0  0  0  0  0  0  0  0  0  0  0  0
  -15.7420   49.6700    6.3060 C   0  0  0  0  0  0  0  0  0  0  0  0
  -15.9920   51.3769    1.8710 C   0  0  0  0  0  0  0  0  0  0  0  0
  -14.3940   53.0480   -2.0620 C   0  0  0  0  0  0  0  0  0  0  0  0
  -14.3310   50.5580   -0.7679 C   0  0  0  0  0  0  0  0  0  0  0  0
  -16.1291   51.0550    3.3361 C   0  0  0  0  0  0  0  0  0  0  0  0
  -11.4950   58.2310   -0.3820 C   0  0  0  0  0  0  0  0  0  0  0  0
  -12.7259   58.4410   -0.9840 C   0  0  0  0  0  0  0  0  0  0  0  0
  -13.5640   56.3490   -0.1190 C   0  0  0  0  0  0  0  0  0  0  0  0
   -9.5350   59.3700    0.2670 O   0  5  0  0  0  0  0  0  0  0  0  0
  -10.4231   59.2480   -0.5429 C   0  0  0  0  0  0  0  0  0  0  0  0
  -10.5290   59.9970   -1.6280 O   0  0  0  0  0  0  0  0  0  0  0  0
  -11.3059   57.0549    0.3700 C   0  0  0  0  0  0  0  0  0  0  0  0
  -12.3410   56.1251    0.4980 C   0  0  0  0  0  0  0  0  0  0  0  0
  -14.7350   55.4220   -0.0290 C   0  0  0  0  0  0  0  0  0  0  0  0
  -14.5980   53.9881    0.2801 N   0  0  0  0  0  0  0  0  0  0  0  0
  -14.6760   53.4701    1.5500 C   0  0  0  0  0  0  0  0  0  0  0  0
  -14.7951   54.1140    2.5770 O   0  0  0  0  0  0  0  0  0  0  0  0
  -14.9900   50.2180    3.7351 N   0  0  0  0  0  0  0  0  0  0  0  0
  -13.7220   50.9690    3.7450 C   0  0  0  0  0  0  0  0  0  0  0  0
  -13.3721   51.3669    2.3120 C   0  0  0  0  0  0  0  0  0  0  0  0
  -15.2231   48.9679    4.7601 S   0  0  0  0  0  0  0  0  0  0  0  0
  -13.9479   48.3580    4.9691 O   0  0  0  0  0  0  0  0  0  0  0  0
  -16.2962   48.1910    4.2260 O   0  0  0  0  0  0  0  0  0  0  0  0
  -14.7340   50.0580    7.1890 C   0  0  0  0  0  0  0  0  0  0  0  0
  -15.0630   50.6141    8.4161 C   0  0  0  0  0  0  0  0  0  0  0  0
  -16.3850   50.7869    8.7731 C   0  0  0  0  0  0  0  0  0  0  0  0
  -17.4030   50.4070    7.9079 C   0  0  0  0  0  0  0  0  0  0  0  0
  -17.0851   49.8511    6.6780 C   0  0  0  0  0  0  0  0  0  0  0  0
  -18.3881   49.3931    5.6341 Cl  0  0  0  0  0  0  0  0  0  0  0  0
  -14.2421   50.6551   -2.1440 C   0  0  0  0  0  0  0  0  0  0  0  0
  -14.0800   49.0640   -3.1581 Br  0  0  0  0  0  0  0  0  0  0  0  0
  -14.2740   51.8740   -2.8019 C   0  0  0  0  0  0  0  0  0  0  0  0
  -13.7371   57.5170   -0.8500 C   0  0  0  0  0  0  0  0  0  0  0  0
  -16.6880   52.0550    1.6330 H   0  0  0  0  0  0  0  0  0  0  0  0
  -16.1609   50.5400    1.3501 H   0  0  0  0  0  0  0  0  0  0  0  0
  -16.1340   51.9000    3.8701 H   0  0  0  0  0  0  0  0  0  0  0  0
  -16.9850   50.5631    3.4981 H   0  0  0  0  0  0  0  0  0  0  0  0
  -15.3360   55.8020    0.6740 H   0  0  0  0  0  0  0  0  0  0  0  0
  -15.1980   55.4719   -0.9140 H   0  0  0  0  0  0  0  0  0  0  0  0
  -13.8200   51.7891    4.3101 H   0  0  0  0  0  0  0  0  0  0  0  0
  -12.9940   50.3980    4.1239 H   0  0  0  0  0  0  0  0  0  0  0  0
  -13.0140   50.5601    1.8430 H   0  0  0  0  0  0  0  0  0  0  0  0
  -12.6579   52.0659    2.3490 H   0  0  0  0  0  0  0  0  0  0  0  0
  -14.4130   53.9370   -2.5191 H   0  0  0  0  0  0  0  0  0  0  0  0
  -14.3100   49.6671   -0.3150 H   0  0  0  0  0  0  0  0  0  0  0  0
  -12.8810   59.2711   -1.5200 H   0  0  0  0  0  0  0  0  0  0  0  0
  -10.4271   56.8850    0.8150 H   0  0  0  0  0  0  0  0  0  0  0  0
  -12.2000   55.2940    1.0370 H   0  0  0  0  0  0  0  0  0  0  0  0
  -13.7739   49.9350    6.9369 H   0  0  0  0  0  0  0  0  0  0  0  0
  -14.3380   50.8910    9.0460 H   0  0  0  0  0  0  0  0  0  0  0  0
  -16.6110   51.1890    9.6600 H   0  0  0  0  0  0  0  0  0  0  0  0
  -18.3600   50.5340    8.1710 H   0  0  0  0  0  0  0  0  0  0  0  0
  -14.2111   51.9109   -3.7990 H   0  0  0  0  0  0  0  0  0  0  0  0
  -14.6180   57.6910   -1.2899 H   0  0  0  0  0  0  0  0  0  0  0  0
  1  2  1  0
  1  5  1  0
  1 19  1  0
  1 23  1  0
  2  3  2  0
  2  7  1  0
  3  6  1  0
  3 18  1  0
  4 24  1  0
  4 27  2  0
  4 31  1  0
  5  8  1  0
  6 35  2  0
  7 33  2  0
  8 21  1  0
  9 10  2  0
  9 13  1  0
  9 15  1  0
 10 36  1  0
 11 16  1  0
 11 17  1  0
 11 36  2  0
 12 13  1  0
 13 14  2  0
 15 16  2  0
 17 18  1  0
 18 19  1  0
 19 20  2  0
 21 22  1  0
 21 24  1  0
 22 23  1  0
 24 25  2  0
 24 26  2  0
 27 28  1  0
 28 29  2  0
 29 30  1  0
 30 31  2  0
 31 32  1  0
 33 34  1  0
 33 35  1  0
  5 37  1  0
  5 38  1  0
  6 47  1  0
  7 48  1  0
  8 39  1  0
  8 40  1  0
 10 49  1  0
 15 50  1  0
 16 51  1  0
 17 41  1  0
 17 42  1  0
 22 43  1  0
 22 44  1  0
 23 45  1  0
 23 46  1  0
 27 52  1  0
 28 53  1  0
 29 54  1  0
 30 55  1  0
 35 56  1  0
 36 57  1  0
M  CHG  1  12  -1
M  END
>  <IC50>
58

>  <Total Formal Charge>
-1

>  <Protein>
5Q0W

>  <Favorite_cresset>
false

>  <Protein_cresset>
5Q0W [Unassociated]

>  <MW_cresset>
588.9

>  <#Atoms_cresset>
36

>  <SlogP_cresset>
5.2

>  <TPSA_cresset>
97.8

>  <Flexibility_cresset>
5.2

>  <HBA_cresset>
7

>  <HBD_cresset>
0

>  <Rof5_cresset>
2

>  <Confs_cresset>
0

>  <Poses_cresset>
0

>  <Activity (IC50)_cresset>
7.24

>  <LE (IC50)_cresset>
0.282

>  <LipE (IC50)_cresset>
2.1

$$$$
FXR_10
  xed2sdf           3D
 
 54 58  0  0  0  0  0  0  0  0999 V2000
  -14.5901   51.9440    1.4491 C   0  0  0  0  0  0  0  0  0  0  0  0
  -14.4501   51.7310   -0.0290 C   0  0  0  0  0  0  0  0  0  0  0  0
  -14.4870   52.9630   -0.6740 C   0  0  0  0  0  0  0  0  0  0  0  0
  -15.6872   49.7119    6.3876 C   0  0  0  0  0  0  0  0  0  0  0  0
  -15.9920   51.3769    1.8710 C   0  0  0  0  0  0  0  0  0  0  0  0
  -14.3940   53.0480   -2.0620 C   0  0  0  0  0  0  0  0  0  0  0  0
  -14.3310   50.5580   -0.7679 C   0  0  0  0  0  0  0  0  0  0  0  0
  -16.1291   51.0550    3.3361 C   0  0  0  0  0  0  0  0  0  0  0  0
  -11.4950   58.2310   -0.3820 C   0  0  0  0  0  0  0  0  0  0  0  0
  -12.7259   58.4410   -0.9840 C   0  0  0  0  0  0  0  0  0  0  0  0
  -13.5640   56.3490   -0.1190 C   0  0  0  0  0  0  0  0  0  0  0  0
   -9.5350   59.3700    0.2670 O   0  5  0  0  0  0  0  0  0  0  0  0
  -10.4231   59.2480   -0.5429 C   0  0  0  0  0  0  0  0  0  0  0  0
  -10.5290   59.9970   -1.6280 O   0  0  0  0  0  0  0  0  0  0  0  0
  -11.3059   57.0549    0.3700 C   0  0  0  0  0  0  0  0  0  0  0  0
  -12.3410   56.1251    0.4980 C   0  0  0  0  0  0  0  0  0  0  0  0
  -14.7350   55.4220   -0.0290 C   0  0  0  0  0  0  0  0  0  0  0  0
  -14.5980   53.9881    0.2801 N   0  0  0  0  0  0  0  0  0  0  0  0
  -14.6760   53.4701    1.5500 C   0  0  0  0  0  0  0  0  0  0  0  0
  -14.7951   54.1140    2.5769 O   0  0  0  0  0  0  0  0  0  0  0  0
  -14.9900   50.2179    3.7351 N   0  0  0  0  0  0  0  0  0  0  0  0
  -13.7220   50.9690    3.7450 C   0  0  0  0  0  0  0  0  0  0  0  0
  -13.3721   51.3669    2.3120 C   0  0  0  0  0  0  0  0  0  0  0  0
  -15.2231   48.9679    4.7601 S   0  0  0  0  0  0  0  0  0  0  0  0
  -13.9479   48.3580    4.9691 O   0  0  0  0  0  0  0  0  0  0  0  0
  -16.2961   48.1910    4.2260 O   0  0  0  0  0  0  0  0  0  0  0  0
  -14.7022   50.0587    7.1805 C   0  0  0  0  0  0  0  0  0  0  0  0
  -15.0363   50.6301    8.4421 C   0  0  0  0  0  0  0  0  0  0  0  0
  -16.3027   50.7711    8.7273 C   0  0  0  0  0  0  0  0  0  0  0  0
  -17.2156   50.1379    7.2816 S   0  0  0  0  0  0  0  0  0  0  0  0
  -14.2421   50.6551   -2.1440 C   0  0  0  0  0  0  0  0  0  0  0  0
  -14.0800   49.0640   -3.1581 Br  0  0  0  0  0  0  0  0  0  0  0  0
  -14.2740   51.8740   -2.8020 C   0  0  0  0  0  0  0  0  0  0  0  0
  -13.7371   57.5170   -0.8500 C   0  0  0  0  0  0  0  0  0  0  0  0
  -16.6880   52.0550    1.6330 H   0  0  0  0  0  0  0  0  0  0  0  0
  -16.1609   50.5400    1.3501 H   0  0  0  0  0  0  0  0  0  0  0  0
  -16.1340   51.9000    3.8701 H   0  0  0  0  0  0  0  0  0  0  0  0
  -16.9850   50.5631    3.4981 H   0  0  0  0  0  0  0  0  0  0  0  0
  -15.3360   55.8020    0.6740 H   0  0  0  0  0  0  0  0  0  0  0  0
  -15.1980   55.4719   -0.9140 H   0  0  0  0  0  0  0  0  0  0  0  0
  -13.8200   51.7891    4.3101 H   0  0  0  0  0  0  0  0  0  0  0  0
  -12.9940   50.3980    4.1239 H   0  0  0  0  0  0  0  0  0  0  0  0
  -13.0140   50.5601    1.8430 H   0  0  0  0  0  0  0  0  0  0  0  0
  -12.6579   52.0659    2.3490 H   0  0  0  0  0  0  0  0  0  0  0  0
  -14.4130   53.9370   -2.5191 H   0  0  0  0  0  0  0  0  0  0  0  0
  -14.3100   49.6671   -0.3150 H   0  0  0  0  0  0  0  0  0  0  0  0
  -12.8810   59.2711   -1.5200 H   0  0  0  0  0  0  0  0  0  0  0  0
  -10.4271   56.8850    0.8150 H   0  0  0  0  0  0  0  0  0  0  0  0
  -12.2000   55.2940    1.0370 H   0  0  0  0  0  0  0  0  0  0  0  0
  -13.7739   49.9350    6.9370 H   0  0  0  0  0  0  0  0  0  0  0  0
  -14.3380   50.8910    9.0460 H   0  0  0  0  0  0  0  0  0  0  0  0
  -14.2111   51.9109   -3.7990 H   0  0  0  0  0  0  0  0  0  0  0  0
  -14.6180   57.6910   -1.2899 H   0  0  0  0  0  0  0  0  0  0  0  0
  -16.6152   51.1879    9.6599 H   0  0  0  0  0  0  0  0  0  0  0  0
  1  2  1  0
  1  5  1  0
  1 19  1  0
  1 23  1  0
  2  3  2  0
  2  7  1  0
  3  6  1  0
  3 18  1  0
  4 24  1  0
  4 27  2  0
  4 30  1  0
  5  8  1  0
  6 33  2  0
  7 31  2  0
  8 21  1  0
  9 10  2  0
  9 13  1  0
  9 15  1  0
 10 34  1  0
 11 16  1  0
 11 17  1  0
 11 34  2  0
 12 13  1  0
 13 14  2  0
 15 16  2  0
 17 18  1  0
 18 19  1  0
 19 20  2  0
 21 22  1  0
 21 24  1  0
 22 23  1  0
 24 25  2  0
 24 26  2  0
 27 28  1  0
 28 29  2  0
 29 30  1  0
 31 32  1  0
 31 33  1  0
  5 35  1  0
  5 36  1  0
  6 45  1  0
  7 46  1  0
  8 37  1  0
  8 38  1  0
 10 47  1  0
 15 48  1  0
 16 49  1  0
 17 39  1  0
 17 40  1  0
 22 41  1  0
 22 42  1  0
 23 43  1  0
 23 44  1  0
 27 50  1  0
 28 51  1  0
 29 54  1  0
 33 52  1  0
 34 53  1  0
M  CHG  1  12  -1
M  END
>  <IC50>
5640

>  <Total Formal Charge>
-1

>  <Protein>
5Q0W

>  <Favorite_cresset>
false

>  <Protein_cresset>
5Q0W [Unassociated]

>  <MW_cresset>
560.5

>  <#Atoms_cresset>
34

>  <SlogP_cresset>
4.6

>  <TPSA_cresset>
97.8

>  <Flexibility_cresset>
5.2

>  <HBA_cresset>
7

>  <HBD_cresset>
0

>  <Rof5_cresset>
1

>  <Confs_cresset>
0

>  <Poses_cresset>
0

>  <Activity (IC50)_cresset>
5.25

>  <LE (IC50)_cresset>
0.216

>  <LipE (IC50)_cresset>
0.7

$$$$
FXR_79
  xed2sdf           3D
 
 54 58  0  0  0  0  0  0  0  0999 V2000
  -14.5901   51.9440    1.4491 C   0  0  0  0  0  0  0  0  0  0  0  0
  -14.4501   51.7310   -0.0290 C   0  0  0  0  0  0  0  0  0  0  0  0
  -14.4870   52.9630   -0.6740 C   0  0  0  0  0  0  0  0  0  0  0  0
  -15.6871   49.7119    6.3876 C   0  0  0  0  0  0  0  0  0  0  0  0
  -15.9920   51.3769    1.8710 C   0  0  0  0  0  0  0  0  0  0  0  0
  -14.3940   53.0480   -2.0620 C   0  0  0  0  0  0  0  0  0  0  0  0
  -14.3310   50.5580   -0.7679 C   0  0  0  0  0  0  0  0  0  0  0  0
  -16.1291   51.0550    3.3361 C   0  0  0  0  0  0  0  0  0  0  0  0
  -11.4950   58.2310   -0.3820 C   0  0  0  0  0  0  0  0  0  0  0  0
  -12.7259   58.4410   -0.9840 C   0  0  0  0  0  0  0  0  0  0  0  0
  -13.5639   56.3490   -0.1191 C   0  0  0  0  0  0  0  0  0  0  0  0
  -11.3059   57.0549    0.3700 C   0  0  0  0  0  0  0  0  0  0  0  0
  -12.3410   56.1251    0.4980 C   0  0  0  0  0  0  0  0  0  0  0  0
  -14.7350   55.4220   -0.0290 C   0  0  0  0  0  0  0  0  0  0  0  0
  -14.5980   53.9881    0.2801 N   0  0  0  0  0  0  0  0  0  0  0  0
  -14.6760   53.4701    1.5500 C   0  0  0  0  0  0  0  0  0  0  0  0
  -14.7951   54.1140    2.5770 O   0  0  0  0  0  0  0  0  0  0  0  0
  -14.9900   50.2180    3.7351 N   0  0  0  0  0  0  0  0  0  0  0  0
  -13.7220   50.9690    3.7450 C   0  0  0  0  0  0  0  0  0  0  0  0
  -13.3721   51.3669    2.3120 C   0  0  0  0  0  0  0  0  0  0  0  0
  -15.2231   48.9679    4.7601 S   0  0  0  0  0  0  0  0  0  0  0  0
  -13.9479   48.3580    4.9691 O   0  0  0  0  0  0  0  0  0  0  0  0
  -16.2961   48.1910    4.2260 O   0  0  0  0  0  0  0  0  0  0  0  0
  -14.7022   50.0587    7.1805 C   0  0  0  0  0  0  0  0  0  0  0  0
  -15.0364   50.6301    8.4422 C   0  0  0  0  0  0  0  0  0  0  0  0
  -16.3027   50.7710    8.7273 C   0  0  0  0  0  0  0  0  0  0  0  0
  -17.2156   50.1379    7.2816 S   0  0  0  0  0  0  0  0  0  0  0  0
  -14.2421   50.6551   -2.1440 C   0  0  0  0  0  0  0  0  0  0  0  0
  -14.0800   49.0640   -3.1581 Br  0  0  0  0  0  0  0  0  0  0  0  0
  -14.2740   51.8740   -2.8020 C   0  0  0  0  0  0  0  0  0  0  0  0
  -13.7371   57.5170   -0.8500 C   0  0  0  0  0  0  0  0  0  0  0  0
  -13.0450   59.7662   -1.4351 C   0  0  0  0  0  0  0  0  0  0  0  0
  -14.2229   59.9659   -1.8554 O   0  5  0  0  0  0  0  0  0  0  0  0
  -12.1182   60.6276   -1.3778 O   0  0  0  0  0  0  0  0  0  0  0  0
  -16.6880   52.0550    1.6330 H   0  0  0  0  0  0  0  0  0  0  0  0
  -16.1609   50.5400    1.3501 H   0  0  0  0  0  0  0  0  0  0  0  0
  -16.1340   51.9000    3.8701 H   0  0  0  0  0  0  0  0  0  0  0  0
  -16.9850   50.5631    3.4981 H   0  0  0  0  0  0  0  0  0  0  0  0
  -15.3360   55.8020    0.6740 H   0  0  0  0  0  0  0  0  0  0  0  0
  -15.1980   55.4719   -0.9140 H   0  0  0  0  0  0  0  0  0  0  0  0
  -13.8200   51.7891    4.3101 H   0  0  0  0  0  0  0  0  0  0  0  0
  -12.9940   50.3980    4.1239 H   0  0  0  0  0  0  0  0  0  0  0  0
  -13.0140   50.5601    1.8430 H   0  0  0  0  0  0  0  0  0  0  0  0
  -12.6579   52.0659    2.3490 H   0  0  0  0  0  0  0  0  0  0  0  0
  -14.4130   53.9370   -2.5191 H   0  0  0  0  0  0  0  0  0  0  0  0
  -14.3100   49.6672   -0.3150 H   0  0  0  0  0  0  0  0  0  0  0  0
  -10.4271   56.8850    0.8150 H   0  0  0  0  0  0  0  0  0  0  0  0
  -12.2000   55.2940    1.0370 H   0  0  0  0  0  0  0  0  0  0  0  0
  -13.7739   49.9350    6.9369 H   0  0  0  0  0  0  0  0  0  0  0  0
  -14.3380   50.8910    9.0460 H   0  0  0  0  0  0  0  0  0  0  0  0
  -14.2111   51.9109   -3.7990 H   0  0  0  0  0  0  0  0  0  0  0  0
  -14.6180   57.6910   -1.2899 H   0  0  0  0  0  0  0  0  0  0  0  0
  -16.6151   51.1879    9.6598 H   0  0  0  0  0  0  0  0  0  0  0  0
  -10.7654   58.9068   -0.4867 H   0  0  0  0  0  0  0  0  0  0  0  0
  1  2  1  0
  1  5  1  0
  1 16  1  0
  1 20  1  0
  2  3  2  0
  2  7  1  0
  3  6  1  0
  3 15  1  0
  4 21  1  0
  4 24  2  0
  4 27  1  0
  5  8  1  0
  6 30  2  0
  7 28  2  0
  8 18  1  0
  9 10  2  0
  9 12  1  0
 10 31  1  0
 10 32  1  0
 11 13  1  0
 11 14  1  0
 11 31  2  0
 12 13  2  0
 14 15  1  0
 15 16  1  0
 16 17  2  0
 18 19  1  0
 18 21  1  0
 19 20  1  0
 21 22  2  0
 21 23  2  0
 24 25  1  0
 25 26  2  0
 26 27  1  0
 28 29  1  0
 28 30  1  0
 32 33  1  0
 32 34  2  0
  5 35  1  0
  5 36  1  0
  6 45  1  0
  7 46  1  0
  8 37  1  0
  8 38  1  0
  9 54  1  0
 12 47  1  0
 13 48  1  0
 14 39  1  0
 14 40  1  0
 19 41  1  0
 19 42  1  0
 20 43  1  0
 20 44  1  0
 24 49  1  0
 25 50  1  0
 26 53  1  0
 30 51  1  0
 31 52  1  0
M  CHG  1  33  -1
M  END
>  <IC50>
4150

>  <Total Formal Charge>
-1

>  <Protein>
5Q0W

>  <Favorite_cresset>
false

>  <Protein_cresset>
5Q0W [Unassociated]

>  <MW_cresset>
560.5

>  <#Atoms_cresset>
34

>  <SlogP_cresset>
4.6

>  <TPSA_cresset>
97.8

>  <Flexibility_cresset>
5.2

>  <HBA_cresset>
7

>  <HBD_cresset>
0

>  <Rof5_cresset>
1

>  <Confs_cresset>
0

>  <Poses_cresset>
0

>  <Activity (IC50)_cresset>
5.38

>  <LE (IC50)_cresset>
0.222

>  <LipE (IC50)_cresset>
0.8

$$$$
FXR_78
  xed2sdf           3D
 
 57 61  0  0  0  0  0  0  0  0999 V2000
  -14.5901   51.9441    1.4491 C   0  0  0  0  0  0  0  0  0  0  0  0
  -14.4500   51.7310   -0.0290 C   0  0  0  0  0  0  0  0  0  0  0  0
  -14.4869   52.9629   -0.6740 C   0  0  0  0  0  0  0  0  0  0  0  0
  -15.7419   49.6699    6.3060 C   0  0  0  0  0  0  0  0  0  0  0  0
  -15.9919   51.3769    1.8710 C   0  0  0  0  0  0  0  0  0  0  0  0
  -14.3940   53.0480   -2.0619 C   0  0  0  0  0  0  0  0  0  0  0  0
  -14.3309   50.5580   -0.7680 C   0  0  0  0  0  0  0  0  0  0  0  0
  -16.1290   51.0550    3.3361 C   0  0  0  0  0  0  0  0  0  0  0  0
  -11.4951   58.2310   -0.3820 C   0  0  0  0  0  0  0  0  0  0  0  0
  -12.7260   58.4410   -0.9840 C   0  0  0  0  0  0  0  0  0  0  0  0
  -13.5640   56.3490   -0.1190 C   0  0  0  0  0  0  0  0  0  0  0  0
   -9.5350   59.3699    0.2670 O   0  5  0  0  0  0  0  0  0  0  0  0
  -10.4229   59.2480   -0.5429 C   0  0  0  0  0  0  0  0  0  0  0  0
  -10.5290   59.9969   -1.6279 O   0  0  0  0  0  0  0  0  0  0  0  0
  -11.3059   57.0550    0.3700 C   0  0  0  0  0  0  0  0  0  0  0  0
  -12.3410   56.1251    0.4980 C   0  0  0  0  0  0  0  0  0  0  0  0
  -14.7349   55.4219   -0.0289 C   0  0  0  0  0  0  0  0  0  0  0  0
  -14.5981   53.9881    0.2800 N   0  0  0  0  0  0  0  0  0  0  0  0
  -14.6761   53.4700    1.5500 C   0  0  0  0  0  0  0  0  0  0  0  0
  -14.7951   54.1140    2.5770 O   0  0  0  0  0  0  0  0  0  0  0  0
  -14.9901   50.2180    3.7350 N   0  0  0  0  0  0  0  0  0  0  0  0
  -13.7219   50.9690    3.7450 C   0  0  0  0  0  0  0  0  0  0  0  0
  -13.3721   51.3670    2.3120 C   0  0  0  0  0  0  0  0  0  0  0  0
  -15.2230   48.9680    4.7601 S   0  0  0  0  0  0  0  0  0  0  0  0
  -13.9479   48.3580    4.9690 O   0  0  0  0  0  0  0  0  0  0  0  0
  -16.2960   48.1910    4.2260 O   0  0  0  0  0  0  0  0  0  0  0  0
  -14.7497   50.0738    7.1922 C   0  0  0  0  0  0  0  0  0  0  0  0
  -15.0630   50.6140    8.4160 C   0  0  0  0  0  0  0  0  0  0  0  0
  -16.3850   50.7869    8.7731 C   0  0  0  0  0  0  0  0  0  0  0  0
  -17.4030   50.4070    7.9079 C   0  0  0  0  0  0  0  0  0  0  0  0
  -17.0735   49.8456    6.6789 C   0  0  0  0  0  0  0  0  0  0  0  0
  -18.3679   49.3855    5.6116 Cl  0  0  0  0  0  0  0  0  0  0  0  0
  -14.2421   50.6551   -2.1440 C   0  0  0  0  0  0  0  0  0  0  0  0
  -14.0800   49.0640   -3.1581 Br  0  0  0  0  0  0  0  0  0  0  0  0
  -14.2739   51.8741   -2.8020 C   0  0  0  0  0  0  0  0  0  0  0  0
  -13.7371   57.5169   -0.8500 C   0  0  0  0  0  0  0  0  0  0  0  0
  -13.0544   49.9474    6.8097 Cl  0  0  0  0  0  0  0  0  0  0  0  0
  -16.6880   52.0550    1.6330 H   0  0  0  0  0  0  0  0  0  0  0  0
  -16.1609   50.5401    1.3502 H   0  0  0  0  0  0  0  0  0  0  0  0
  -16.1341   51.9000    3.8700 H   0  0  0  0  0  0  0  0  0  0  0  0
  -16.9850   50.5630    3.4980 H   0  0  0  0  0  0  0  0  0  0  0  0
  -15.3361   55.8019    0.6740 H   0  0  0  0  0  0  0  0  0  0  0  0
  -15.1980   55.4720   -0.9140 H   0  0  0  0  0  0  0  0  0  0  0  0
  -13.8200   51.7891    4.3101 H   0  0  0  0  0  0  0  0  0  0  0  0
  -12.9939   50.3980    4.1239 H   0  0  0  0  0  0  0  0  0  0  0  0
  -13.0139   50.5602    1.8430 H   0  0  0  0  0  0  0  0  0  0  0  0
  -12.6579   52.0660    2.3490 H   0  0  0  0  0  0  0  0  0  0  0  0
  -14.4130   53.9369   -2.5190 H   0  0  0  0  0  0  0  0  0  0  0  0
  -14.3100   49.6670   -0.3149 H   0  0  0  0  0  0  0  0  0  0  0  0
  -12.8810   59.2710   -1.5200 H   0  0  0  0  0  0  0  0  0  0  0  0
  -10.4270   56.8850    0.8149 H   0  0  0  0  0  0  0  0  0  0  0  0
  -12.2000   55.2939    1.0368 H   0  0  0  0  0  0  0  0  0  0  0  0
  -14.3380   50.8909    9.0460 H   0  0  0  0  0  0  0  0  0  0  0  0
  -16.6110   51.1889    9.6599 H   0  0  0  0  0  0  0  0  0  0  0  0
  -18.3599   50.5340    8.1709 H   0  0  0  0  0  0  0  0  0  0  0  0
  -14.2110   51.9110   -3.7990 H   0  0  0  0  0  0  0  0  0  0  0  0
  -14.6180   57.6910   -1.2900 H   0  0  0  0  0  0  0  0  0  0  0  0
  1  2  1  0
  1  5  1  0
  1 19  1  0
  1 23  1  0
  2  3  2  0
  2  7  1  0
  3  6  1  0
  3 18  1  0
  4 24  1  0
  4 27  2  0
  4 31  1  0
  5  8  1  0
  6 35  2  0
  7 33  2  0
  8 21  1  0
  9 10  2  0
  9 13  1  0
  9 15  1  0
 10 36  1  0
 11 16  1  0
 11 17  1  0
 11 36  2  0
 12 13  1  0
 13 14  2  0
 15 16  2  0
 17 18  1  0
 18 19  1  0
 19 20  2  0
 21 22  1  0
 21 24  1  0
 22 23  1  0
 24 25  2  0
 24 26  2  0
 27 28  1  0
 27 37  1  0
 28 29  2  0
 29 30  1  0
 30 31  2  0
 31 32  1  0
 33 34  1  0
 33 35  1  0
  5 38  1  0
  5 39  1  0
  6 48  1  0
  7 49  1  0
  8 40  1  0
  8 41  1  0
 10 50  1  0
 15 51  1  0
 16 52  1  0
 17 42  1  0
 17 43  1  0
 22 44  1  0
 22 45  1  0
 23 46  1  0
 23 47  1  0
 28 53  1  0
 29 54  1  0
 30 55  1  0
 35 56  1  0
 36 57  1  0
M  CHG  1  12  -1
M  END
>  <IC50>
28.3

>  <Total Formal Charge>
-1

>  <Protein>
5Q0W

>  <Favorite_cresset>
false

>  <Protein_cresset>
5Q0W [Unassociated]

>  <MW_cresset>
623.3

>  <#Atoms_cresset>
37

>  <SlogP_cresset>
5.8

>  <TPSA_cresset>
97.8

>  <Flexibility_cresset>
5.2

>  <HBA_cresset>
7

>  <HBD_cresset>
0

>  <Rof5_cresset>
2

>  <Confs_cresset>
0

>  <Poses_cresset>
0

>  <Activity (IC50)_cresset>
7.55

>  <LE (IC50)_cresset>
0.286

>  <LipE (IC50)_cresset>
1.7

$$$$
FXR_77
  xed2sdf           3D
 
 57 61  0  0  0  0  0  0  0  0999 V2000
  -14.5901   51.9440    1.4491 C   0  0  0  0  0  0  0  0  0  0  0  0
  -14.4500   51.7310   -0.0289 C   0  0  0  0  0  0  0  0  0  0  0  0
  -14.4870   52.9629   -0.6740 C   0  0  0  0  0  0  0  0  0  0  0  0
  -15.7420   49.6700    6.3060 C   0  0  0  0  0  0  0  0  0  0  0  0
  -15.9919   51.3769    1.8709 C   0  0  0  0  0  0  0  0  0  0  0  0
  -14.3940   53.0481   -2.0619 C   0  0  0  0  0  0  0  0  0  0  0  0
  -14.3309   50.5580   -0.7680 C   0  0  0  0  0  0  0  0  0  0  0  0
  -16.1290   51.0550    3.3361 C   0  0  0  0  0  0  0  0  0  0  0  0
  -11.4951   58.2310   -0.3820 C   0  0  0  0  0  0  0  0  0  0  0  0
  -12.7260   58.4410   -0.9840 C   0  0  0  0  0  0  0  0  0  0  0  0
  -13.5640   56.3490   -0.1190 C   0  0  0  0  0  0  0  0  0  0  0  0
   -9.5351   59.3699    0.2670 O   0  5  0  0  0  0  0  0  0  0  0  0
  -10.4230   59.2480   -0.5429 C   0  0  0  0  0  0  0  0  0  0  0  0
  -10.5290   59.9970   -1.6280 O   0  0  0  0  0  0  0  0  0  0  0  0
  -11.3060   57.0550    0.3701 C   0  0  0  0  0  0  0  0  0  0  0  0
  -12.3410   56.1250    0.4980 C   0  0  0  0  0  0  0  0  0  0  0  0
  -14.7349   55.4220   -0.0290 C   0  0  0  0  0  0  0  0  0  0  0  0
  -14.5981   53.9880    0.2801 N   0  0  0  0  0  0  0  0  0  0  0  0
  -14.6760   53.4701    1.5500 C   0  0  0  0  0  0  0  0  0  0  0  0
  -14.7951   54.1142    2.5770 O   0  0  0  0  0  0  0  0  0  0  0  0
  -14.9901   50.2181    3.7350 N   0  0  0  0  0  0  0  0  0  0  0  0
  -13.7219   50.9690    3.7450 C   0  0  0  0  0  0  0  0  0  0  0  0
  -13.3721   51.3670    2.3120 C   0  0  0  0  0  0  0  0  0  0  0  0
  -15.2230   48.9681    4.7601 S   0  0  0  0  0  0  0  0  0  0  0  0
  -13.9479   48.3580    4.9690 O   0  0  0  0  0  0  0  0  0  0  0  0
  -16.2960   48.1909    4.2260 O   0  0  0  0  0  0  0  0  0  0  0  0
  -14.7340   50.0581    7.1890 C   0  0  0  0  0  0  0  0  0  0  0  0
  -15.0630   50.6140    8.4160 C   0  0  0  0  0  0  0  0  0  0  0  0
  -16.3851   50.7870    8.7730 C   0  0  0  0  0  0  0  0  0  0  0  0
  -17.4031   50.4071    7.9079 C   0  0  0  0  0  0  0  0  0  0  0  0
  -17.0849   49.8510    6.6781 C   0  0  0  0  0  0  0  0  0  0  0  0
  -18.3880   49.3931    5.6340 Cl  0  0  0  0  0  0  0  0  0  0  0  0
  -14.2420   50.6551   -2.1440 C   0  0  0  0  0  0  0  0  0  0  0  0
  -14.0800   49.0640   -3.1581 Br  0  0  0  0  0  0  0  0  0  0  0  0
  -14.2739   51.8741   -2.8020 C   0  0  0  0  0  0  0  0  0  0  0  0
  -13.7371   57.5170   -0.8500 C   0  0  0  0  0  0  0  0  0  0  0  0
  -18.8737   50.2919    8.2620 Cl  0  0  0  0  0  0  0  0  0  0  0  0
  -16.6880   52.0549    1.6331 H   0  0  0  0  0  0  0  0  0  0  0  0
  -16.1610   50.5401    1.3500 H   0  0  0  0  0  0  0  0  0  0  0  0
  -16.1341   51.8999    3.8700 H   0  0  0  0  0  0  0  0  0  0  0  0
  -16.9851   50.5631    3.4980 H   0  0  0  0  0  0  0  0  0  0  0  0
  -15.3360   55.8019    0.6740 H   0  0  0  0  0  0  0  0  0  0  0  0
  -15.1980   55.4719   -0.9140 H   0  0  0  0  0  0  0  0  0  0  0  0
  -13.8200   51.7891    4.3099 H   0  0  0  0  0  0  0  0  0  0  0  0
  -12.9939   50.3980    4.1240 H   0  0  0  0  0  0  0  0  0  0  0  0
  -13.0139   50.5602    1.8430 H   0  0  0  0  0  0  0  0  0  0  0  0
  -12.6580   52.0659    2.3489 H   0  0  0  0  0  0  0  0  0  0  0  0
  -14.4130   53.9370   -2.5191 H   0  0  0  0  0  0  0  0  0  0  0  0
  -14.3100   49.6671   -0.3149 H   0  0  0  0  0  0  0  0  0  0  0  0
  -12.8810   59.2710   -1.5200 H   0  0  0  0  0  0  0  0  0  0  0  0
  -10.4270   56.8850    0.8150 H   0  0  0  0  0  0  0  0  0  0  0  0
  -12.2000   55.2939    1.0370 H   0  0  0  0  0  0  0  0  0  0  0  0
  -13.7740   49.9350    6.9369 H   0  0  0  0  0  0  0  0  0  0  0  0
  -14.3380   50.8909    9.0458 H   0  0  0  0  0  0  0  0  0  0  0  0
  -16.6110   51.1890    9.6599 H   0  0  0  0  0  0  0  0  0  0  0  0
  -14.2110   51.9110   -3.7989 H   0  0  0  0  0  0  0  0  0  0  0  0
  -14.6179   57.6910   -1.2900 H   0  0  0  0  0  0  0  0  0  0  0  0
  1  2  1  0
  1  5  1  0
  1 19  1  0
  1 23  1  0
  2  3  2  0
  2  7  1  0
  3  6  1  0
  3 18  1  0
  4 24  1  0
  4 27  2  0
  4 31  1  0
  5  8  1  0
  6 35  2  0
  7 33  2  0
  8 21  1  0
  9 10  2  0
  9 13  1  0
  9 15  1  0
 10 36  1  0
 11 16  1  0
 11 17  1  0
 11 36  2  0
 12 13  1  0
 13 14  2  0
 15 16  2  0
 17 18  1  0
 18 19  1  0
 19 20  2  0
 21 22  1  0
 21 24  1  0
 22 23  1  0
 24 25  2  0
 24 26  2  0
 27 28  1  0
 28 29  2  0
 29 30  1  0
 30 31  2  0
 30 37  1  0
 31 32  1  0
 33 34  1  0
 33 35  1  0
  5 38  1  0
  5 39  1  0
  6 48  1  0
  7 49  1  0
  8 40  1  0
  8 41  1  0
 10 50  1  0
 15 51  1  0
 16 52  1  0
 17 42  1  0
 17 43  1  0
 22 44  1  0
 22 45  1  0
 23 46  1  0
 23 47  1  0
 27 53  1  0
 28 54  1  0
 29 55  1  0
 35 56  1  0
 36 57  1  0
M  CHG  1  12  -1
M  END
>  <IC50>
250

>  <Total Formal Charge>
-1

>  <Protein>
5Q0W

>  <Favorite_cresset>
false

>  <Protein_cresset>
5Q0W [Unassociated]

>  <MW_cresset>
623.3

>  <#Atoms_cresset>
37

>  <SlogP_cresset>
5.8

>  <TPSA_cresset>
97.8

>  <Flexibility_cresset>
5.2

>  <HBA_cresset>
7

>  <HBD_cresset>
0

>  <Rof5_cresset>
2

>  <Confs_cresset>
0

>  <Poses_cresset>
0

>  <Activity (IC50)_cresset>
6.6

>  <LE (IC50)_cresset>
0.250

>  <LipE (IC50)_cresset>
0.8

$$$$
FXR_81
  xed2sdf           3D
 
 60 64  0  0  0  0  0  0  0  0999 V2000
  -14.5901   51.9441    1.4492 C   0  0  0  0  0  0  0  0  0  0  0  0
  -14.4501   51.7310   -0.0289 C   0  0  0  0  0  0  0  0  0  0  0  0
  -14.4870   52.9629   -0.6740 C   0  0  0  0  0  0  0  0  0  0  0  0
  -15.7420   49.6699    6.3060 C   0  0  0  0  0  0  0  0  0  0  0  0
  -15.9920   51.3769    1.8709 C   0  0  0  0  0  0  0  0  0  0  0  0
  -14.3941   53.0481   -2.0619 C   0  0  0  0  0  0  0  0  0  0  0  0
  -14.3309   50.5580   -0.7678 C   0  0  0  0  0  0  0  0  0  0  0  0
  -16.1289   51.0551    3.3361 C   0  0  0  0  0  0  0  0  0  0  0  0
  -11.4951   58.2310   -0.3820 C   0  0  0  0  0  0  0  0  0  0  0  0
  -12.7259   58.4410   -0.9840 C   0  0  0  0  0  0  0  0  0  0  0  0
  -13.5640   56.3491   -0.1191 C   0  0  0  0  0  0  0  0  0  0  0  0
   -9.5350   59.3700    0.2670 O   0  5  0  0  0  0  0  0  0  0  0  0
  -10.4230   59.2479   -0.5429 C   0  0  0  0  0  0  0  0  0  0  0  0
  -10.5290   59.9969   -1.6281 O   0  0  0  0  0  0  0  0  0  0  0  0
  -11.3061   57.0550    0.3701 C   0  0  0  0  0  0  0  0  0  0  0  0
  -12.3410   56.1250    0.4980 C   0  0  0  0  0  0  0  0  0  0  0  0
  -14.7350   55.4220   -0.0291 C   0  0  0  0  0  0  0  0  0  0  0  0
  -14.5980   53.9880    0.2800 N   0  0  0  0  0  0  0  0  0  0  0  0
  -14.6761   53.4700    1.5500 C   0  0  0  0  0  0  0  0  0  0  0  0
  -14.7951   54.1140    2.5771 O   0  0  0  0  0  0  0  0  0  0  0  0
  -14.9900   50.2181    3.7350 N   0  0  0  0  0  0  0  0  0  0  0  0
  -13.7220   50.9688    3.7450 C   0  0  0  0  0  0  0  0  0  0  0  0
  -13.3721   51.3670    2.3120 C   0  0  0  0  0  0  0  0  0  0  0  0
  -15.2231   48.9679    4.7600 S   0  0  0  0  0  0  0  0  0  0  0  0
  -13.9480   48.3581    4.9690 O   0  0  0  0  0  0  0  0  0  0  0  0
  -16.2960   48.1909    4.2260 O   0  0  0  0  0  0  0  0  0  0  0  0
  -14.7340   50.0580    7.1890 C   0  0  0  0  0  0  0  0  0  0  0  0
  -15.0630   50.6142    8.4161 C   0  0  0  0  0  0  0  0  0  0  0  0
  -16.3851   50.7869    8.7730 C   0  0  0  0  0  0  0  0  0  0  0  0
  -17.4031   50.4071    7.9079 C   0  0  0  0  0  0  0  0  0  0  0  0
  -17.0850   49.8511    6.6781 C   0  0  0  0  0  0  0  0  0  0  0  0
  -18.3880   49.3931    5.6341 C   0  0  0  0  0  0  0  0  0  0  0  0
  -14.2420   50.6551   -2.1440 C   0  0  0  0  0  0  0  0  0  0  0  0
  -14.0801   49.0640   -3.1580 Br  0  0  0  0  0  0  0  0  0  0  0  0
  -14.2740   51.8739   -2.8021 C   0  0  0  0  0  0  0  0  0  0  0  0
  -13.7371   57.5171   -0.8499 C   0  0  0  0  0  0  0  0  0  0  0  0
  -18.8738   50.2919    8.2620 Cl  0  0  0  0  0  0  0  0  0  0  0  0
  -16.6880   52.0549    1.6330 H   0  0  0  0  0  0  0  0  0  0  0  0
  -16.1610   50.5400    1.3501 H   0  0  0  0  0  0  0  0  0  0  0  0
  -16.1340   51.8999    3.8700 H   0  0  0  0  0  0  0  0  0  0  0  0
  -16.9850   50.5630    3.4981 H   0  0  0  0  0  0  0  0  0  0  0  0
  -15.3360   55.8019    0.6740 H   0  0  0  0  0  0  0  0  0  0  0  0
  -15.1980   55.4719   -0.9141 H   0  0  0  0  0  0  0  0  0  0  0  0
  -13.8201   51.7891    4.3101 H   0  0  0  0  0  0  0  0  0  0  0  0
  -12.9939   50.3980    4.1239 H   0  0  0  0  0  0  0  0  0  0  0  0
  -13.0140   50.5602    1.8430 H   0  0  0  0  0  0  0  0  0  0  0  0
  -12.6580   52.0659    2.3489 H   0  0  0  0  0  0  0  0  0  0  0  0
  -14.4130   53.9371   -2.5191 H   0  0  0  0  0  0  0  0  0  0  0  0
  -14.3100   49.6671   -0.3150 H   0  0  0  0  0  0  0  0  0  0  0  0
  -12.8811   59.2710   -1.5200 H   0  0  0  0  0  0  0  0  0  0  0  0
  -10.4271   56.8851    0.8150 H   0  0  0  0  0  0  0  0  0  0  0  0
  -12.2000   55.2939    1.0370 H   0  0  0  0  0  0  0  0  0  0  0  0
  -13.7740   49.9350    6.9370 H   0  0  0  0  0  0  0  0  0  0  0  0
  -14.3380   50.8911    9.0460 H   0  0  0  0  0  0  0  0  0  0  0  0
  -16.6110   51.1889    9.6600 H   0  0  0  0  0  0  0  0  0  0  0  0
  -14.2110   51.9110   -3.7990 H   0  0  0  0  0  0  0  0  0  0  0  0
  -14.6179   57.6910   -1.2899 H   0  0  0  0  0  0  0  0  0  0  0  0
  -19.3719   49.2730    6.3099 H   0  0  0  0  0  0  0  0  0  0  0  0
  -18.6282   50.2433    4.8252 H   0  0  0  0  0  0  0  0  0  0  0  0
  -18.1954   48.3332    5.1102 H   0  0  0  0  0  0  0  0  0  0  0  0
  1  2  1  0
  1  5  1  0
  1 19  1  0
  1 23  1  0
  2  3  2  0
  2  7  1  0
  3  6  1  0
  3 18  1  0
  4 24  1  0
  4 27  2  0
  4 31  1  0
  5  8  1  0
  6 35  2  0
  7 33  2  0
  8 21  1  0
  9 10  2  0
  9 13  1  0
  9 15  1  0
 10 36  1  0
 11 16  1  0
 11 17  1  0
 11 36  2  0
 12 13  1  0
 13 14  2  0
 15 16  2  0
 17 18  1  0
 18 19  1  0
 19 20  2  0
 21 22  1  0
 21 24  1  0
 22 23  1  0
 24 25  2  0
 24 26  2  0
 27 28  1  0
 28 29  2  0
 29 30  1  0
 30 31  2  0
 30 37  1  0
 31 32  1  0
 33 34  1  0
 33 35  1  0
  5 38  1  0
  5 39  1  0
  6 48  1  0
  7 49  1  0
  8 40  1  0
  8 41  1  0
 10 50  1  0
 15 51  1  0
 16 52  1  0
 17 42  1  0
 17 43  1  0
 22 44  1  0
 22 45  1  0
 23 46  1  0
 23 47  1  0
 27 53  1  0
 28 54  1  0
 29 55  1  0
 32 58  1  0
 32 59  1  0
 32 60  1  0
 35 56  1  0
 36 57  1  0
M  CHG  1  12  -1
M  END
>  <IC50>
2690

>  <Total Formal Charge>
-1

>  <Protein>
5Q0W

>  <Favorite_cresset>
false

>  <Protein_cresset>
5Q0W [Unassociated]

>  <MW_cresset>
602.9

>  <#Atoms_cresset>
37

>  <SlogP_cresset>
5.5

>  <TPSA_cresset>
97.8

>  <Flexibility_cresset>
5.2

>  <HBA_cresset>
7

>  <HBD_cresset>
0

>  <Rof5_cresset>
2

>  <Confs_cresset>
0

>  <Poses_cresset>
0

>  <Activity (IC50)_cresset>
5.57

>  <LE (IC50)_cresset>
0.211

>  <LipE (IC50)_cresset>
0.1

$$$$
FXR_85
  xed2sdf           3D
 
 60 64  0  0  0  0  0  0  0  0999 V2000
  -14.5901   51.9440    1.4491 C   0  0  0  0  0  0  0  0  0  0  0  0
  -14.4501   51.7310   -0.0290 C   0  0  0  0  0  0  0  0  0  0  0  0
  -14.4870   52.9630   -0.6740 C   0  0  0  0  0  0  0  0  0  0  0  0
  -15.7420   49.6700    6.3060 C   0  0  0  0  0  0  0  0  0  0  0  0
  -15.9919   51.3769    1.8709 C   0  0  0  0  0  0  0  0  0  0  0  0
  -14.3940   53.0480   -2.0620 C   0  0  0  0  0  0  0  0  0  0  0  0
  -14.3310   50.5580   -0.7679 C   0  0  0  0  0  0  0  0  0  0  0  0
  -16.1291   51.0550    3.3361 C   0  0  0  0  0  0  0  0  0  0  0  0
  -11.4950   58.2310   -0.3820 C   0  0  0  0  0  0  0  0  0  0  0  0
  -12.7259   58.4410   -0.9840 C   0  0  0  0  0  0  0  0  0  0  0  0
  -13.5640   56.3490   -0.1190 C   0  0  0  0  0  0  0  0  0  0  0  0
   -9.5350   59.3700    0.2671 O   0  5  0  0  0  0  0  0  0  0  0  0
  -10.4231   59.2480   -0.5429 C   0  0  0  0  0  0  0  0  0  0  0  0
  -10.5290   59.9970   -1.6280 O   0  0  0  0  0  0  0  0  0  0  0  0
  -11.3059   57.0549    0.3700 C   0  0  0  0  0  0  0  0  0  0  0  0
  -12.3410   56.1251    0.4980 C   0  0  0  0  0  0  0  0  0  0  0  0
  -14.7350   55.4220   -0.0290 C   0  0  0  0  0  0  0  0  0  0  0  0
  -14.5980   53.9881    0.2801 N   0  0  0  0  0  0  0  0  0  0  0  0
  -14.6760   53.4701    1.5500 C   0  0  0  0  0  0  0  0  0  0  0  0
  -14.7951   54.1140    2.5770 O   0  0  0  0  0  0  0  0  0  0  0  0
  -14.9900   50.2180    3.7351 N   0  0  0  0  0  0  0  0  0  0  0  0
  -13.7220   50.9690    3.7450 C   0  0  0  0  0  0  0  0  0  0  0  0
  -13.3721   51.3669    2.3120 C   0  0  0  0  0  0  0  0  0  0  0  0
  -15.2231   48.9679    4.7601 S   0  0  0  0  0  0  0  0  0  0  0  0
  -13.9479   48.3580    4.9691 O   0  0  0  0  0  0  0  0  0  0  0  0
  -16.2961   48.1910    4.2260 O   0  0  0  0  0  0  0  0  0  0  0  0
  -14.7340   50.0580    7.1890 C   0  0  0  0  0  0  0  0  0  0  0  0
  -15.0631   50.6141    8.4161 C   0  0  0  0  0  0  0  0  0  0  0  0
  -16.3850   50.7869    8.7731 C   0  0  0  0  0  0  0  0  0  0  0  0
  -17.4030   50.4070    7.9078 C   0  0  0  0  0  0  0  0  0  0  0  0
  -17.0851   49.8511    6.6780 C   0  0  0  0  0  0  0  0  0  0  0  0
  -18.2952   49.4895    5.8303 C   0  0  0  0  0  0  0  0  0  0  0  0
  -14.2421   50.6551   -2.1440 C   0  0  0  0  0  0  0  0  0  0  0  0
  -14.0800   49.0640   -3.1581 Br  0  0  0  0  0  0  0  0  0  0  0  0
  -14.2740   51.8740   -2.8020 C   0  0  0  0  0  0  0  0  0  0  0  0
  -13.7371   57.5170   -0.8499 C   0  0  0  0  0  0  0  0  0  0  0  0
  -16.6880   52.0550    1.6330 H   0  0  0  0  0  0  0  0  0  0  0  0
  -16.1609   50.5400    1.3501 H   0  0  0  0  0  0  0  0  0  0  0  0
  -16.1340   51.9000    3.8701 H   0  0  0  0  0  0  0  0  0  0  0  0
  -16.9850   50.5631    3.4981 H   0  0  0  0  0  0  0  0  0  0  0  0
  -15.3360   55.8020    0.6740 H   0  0  0  0  0  0  0  0  0  0  0  0
  -15.1980   55.4719   -0.9140 H   0  0  0  0  0  0  0  0  0  0  0  0
  -13.8200   51.7891    4.3101 H   0  0  0  0  0  0  0  0  0  0  0  0
  -12.9940   50.3980    4.1239 H   0  0  0  0  0  0  0  0  0  0  0  0
  -13.0140   50.5601    1.8430 H   0  0  0  0  0  0  0  0  0  0  0  0
  -12.6579   52.0659    2.3490 H   0  0  0  0  0  0  0  0  0  0  0  0
  -14.4130   53.9370   -2.5191 H   0  0  0  0  0  0  0  0  0  0  0  0
  -14.3100   49.6671   -0.3150 H   0  0  0  0  0  0  0  0  0  0  0  0
  -12.8810   59.2711   -1.5200 H   0  0  0  0  0  0  0  0  0  0  0  0
  -10.4271   56.8850    0.8150 H   0  0  0  0  0  0  0  0  0  0  0  0
  -12.2000   55.2940    1.0370 H   0  0  0  0  0  0  0  0  0  0  0  0
  -13.7738   49.9350    6.9369 H   0  0  0  0  0  0  0  0  0  0  0  0
  -14.3380   50.8910    9.0460 H   0  0  0  0  0  0  0  0  0  0  0  0
  -16.6110   51.1890    9.6599 H   0  0  0  0  0  0  0  0  0  0  0  0
  -18.3600   50.5340    8.1710 H   0  0  0  0  0  0  0  0  0  0  0  0
  -14.2110   51.9109   -3.7990 H   0  0  0  0  0  0  0  0  0  0  0  0
  -14.6180   57.6910   -1.2898 H   0  0  0  0  0  0  0  0  0  0  0  0
  -18.1044   48.5144    5.1628 H   0  0  0  0  0  0  0  0  0  0  0  0
  -19.2388   49.2471    6.5318 H   0  0  0  0  0  0  0  0  0  0  0  0
  -18.5847   50.4189    5.1297 H   0  0  0  0  0  0  0  0  0  0  0  0
  1  2  1  0
  1  5  1  0
  1 19  1  0
  1 23  1  0
  2  3  2  0
  2  7  1  0
  3  6  1  0
  3 18  1  0
  4 24  1  0
  4 27  2  0
  4 31  1  0
  5  8  1  0
  6 35  2  0
  7 33  2  0
  8 21  1  0
  9 10  2  0
  9 13  1  0
  9 15  1  0
 10 36  1  0
 11 16  1  0
 11 17  1  0
 11 36  2  0
 12 13  1  0
 13 14  2  0
 15 16  2  0
 17 18  1  0
 18 19  1  0
 19 20  2  0
 21 22  1  0
 21 24  1  0
 22 23  1  0
 24 25  2  0
 24 26  2  0
 27 28  1  0
 28 29  2  0
 29 30  1  0
 30 31  2  0
 31 32  1  0
 33 34  1  0
 33 35  1  0
  5 37  1  0
  5 38  1  0
  6 47  1  0
  7 48  1  0
  8 39  1  0
  8 40  1  0
 10 49  1  0
 15 50  1  0
 16 51  1  0
 17 41  1  0
 17 42  1  0
 22 43  1  0
 22 44  1  0
 23 45  1  0
 23 46  1  0
 27 52  1  0
 28 53  1  0
 29 54  1  0
 30 55  1  0
 32 58  1  0
 32 59  1  0
 32 60  1  0
 35 56  1  0
 36 57  1  0
M  CHG  1  12  -1
M  END
>  <IC50>
297

>  <Total Formal Charge>
-1

>  <Protein>
5Q0W

>  <Favorite_cresset>
false

>  <Protein_cresset>
5Q0W [Unassociated]

>  <MW_cresset>
568.5

>  <#Atoms_cresset>
36

>  <SlogP_cresset>
4.8

>  <TPSA_cresset>
97.8

>  <Flexibility_cresset>
5.2

>  <HBA_cresset>
7

>  <HBD_cresset>
0

>  <Rof5_cresset>
1

>  <Confs_cresset>
0

>  <Poses_cresset>
0

>  <Activity (IC50)_cresset>
6.53

>  <LE (IC50)_cresset>
0.254

>  <LipE (IC50)_cresset>
1.7

$$$$
FXR_88
  xed2sdf           3D
 
 60 64  0  0  0  0  0  0  0  0999 V2000
  -14.5900   51.9440    1.4492 C   0  0  0  0  0  0  0  0  0  0  0  0
  -14.4501   51.7310   -0.0290 C   0  0  0  0  0  0  0  0  0  0  0  0
  -14.4869   52.9629   -0.6740 C   0  0  0  0  0  0  0  0  0  0  0  0
  -15.7421   49.6700    6.3061 C   0  0  0  0  0  0  0  0  0  0  0  0
  -15.9918   51.3770    1.8710 C   0  0  0  0  0  0  0  0  0  0  0  0
  -14.3941   53.0480   -2.0619 C   0  0  0  0  0  0  0  0  0  0  0  0
  -14.3310   50.5581   -0.7679 C   0  0  0  0  0  0  0  0  0  0  0  0
  -16.1289   51.0551    3.3361 C   0  0  0  0  0  0  0  0  0  0  0  0
  -11.4950   58.2311   -0.3820 C   0  0  0  0  0  0  0  0  0  0  0  0
  -12.7259   58.4410   -0.9839 C   0  0  0  0  0  0  0  0  0  0  0  0
  -13.5641   56.3490   -0.1191 C   0  0  0  0  0  0  0  0  0  0  0  0
   -9.5350   59.3699    0.2670 O   0  5  0  0  0  0  0  0  0  0  0  0
  -10.4229   59.2480   -0.5429 C   0  0  0  0  0  0  0  0  0  0  0  0
  -10.5291   59.9970   -1.6280 O   0  0  0  0  0  0  0  0  0  0  0  0
  -11.3061   57.0550    0.3701 C   0  0  0  0  0  0  0  0  0  0  0  0
  -12.3410   56.1250    0.4979 C   0  0  0  0  0  0  0  0  0  0  0  0
  -14.7349   55.4221   -0.0291 C   0  0  0  0  0  0  0  0  0  0  0  0
  -14.5981   53.9881    0.2800 N   0  0  0  0  0  0  0  0  0  0  0  0
  -14.6761   53.4701    1.5502 C   0  0  0  0  0  0  0  0  0  0  0  0
  -14.7950   54.1141    2.5771 O   0  0  0  0  0  0  0  0  0  0  0  0
  -14.9901   50.2180    3.7350 N   0  0  0  0  0  0  0  0  0  0  0  0
  -13.7221   50.9689    3.7450 C   0  0  0  0  0  0  0  0  0  0  0  0
  -13.3720   51.3671    2.3120 C   0  0  0  0  0  0  0  0  0  0  0  0
  -15.2231   48.9680    4.7600 S   0  0  0  0  0  0  0  0  0  0  0  0
  -13.9479   48.3580    4.9690 O   0  0  0  0  0  0  0  0  0  0  0  0
  -16.2961   48.1909    4.2260 O   0  0  0  0  0  0  0  0  0  0  0  0
  -14.7339   50.0581    7.1890 C   0  0  0  0  0  0  0  0  0  0  0  0
  -15.0630   50.6141    8.4162 C   0  0  0  0  0  0  0  0  0  0  0  0
  -16.3851   50.7869    8.7729 C   0  0  0  0  0  0  0  0  0  0  0  0
  -17.4031   50.4071    7.9079 C   0  0  0  0  0  0  0  0  0  0  0  0
  -17.0849   49.8511    6.6781 C   0  0  0  0  0  0  0  0  0  0  0  0
  -18.3879   49.3930    5.6341 C   0  0  0  0  0  0  0  0  0  0  0  0
  -14.2420   50.6551   -2.1440 C   0  0  0  0  0  0  0  0  0  0  0  0
  -14.0802   49.0640   -3.1579 Br  0  0  0  0  0  0  0  0  0  0  0  0
  -14.2740   51.8740   -2.8021 C   0  0  0  0  0  0  0  0  0  0  0  0
  -13.7369   57.5170   -0.8498 C   0  0  0  0  0  0  0  0  0  0  0  0
  -19.3719   49.2730    6.3100 F   0  0  0  0  0  0  0  0  0  0  0  0
  -18.6282   50.2432    4.8252 F   0  0  0  0  0  0  0  0  0  0  0  0
  -18.1954   48.3333    5.1102 F   0  0  0  0  0  0  0  0  0  0  0  0
  -16.6881   52.0549    1.6330 H   0  0  0  0  0  0  0  0  0  0  0  0
  -16.1609   50.5400    1.3500 H   0  0  0  0  0  0  0  0  0  0  0  0
  -16.1340   51.8999    3.8701 H   0  0  0  0  0  0  0  0  0  0  0  0
  -16.9852   50.5631    3.4980 H   0  0  0  0  0  0  0  0  0  0  0  0
  -15.3360   55.8020    0.6740 H   0  0  0  0  0  0  0  0  0  0  0  0
  -15.1979   55.4719   -0.9141 H   0  0  0  0  0  0  0  0  0  0  0  0
  -13.8201   51.7891    4.3100 H   0  0  0  0  0  0  0  0  0  0  0  0
  -12.9940   50.3979    4.1239 H   0  0  0  0  0  0  0  0  0  0  0  0
  -13.0139   50.5601    1.8431 H   0  0  0  0  0  0  0  0  0  0  0  0
  -12.6579   52.0659    2.3489 H   0  0  0  0  0  0  0  0  0  0  0  0
  -14.4129   53.9370   -2.5191 H   0  0  0  0  0  0  0  0  0  0  0  0
  -14.3100   49.6671   -0.3150 H   0  0  0  0  0  0  0  0  0  0  0  0
  -12.8810   59.2711   -1.5200 H   0  0  0  0  0  0  0  0  0  0  0  0
  -10.4271   56.8850    0.8151 H   0  0  0  0  0  0  0  0  0  0  0  0
  -12.2000   55.2939    1.0370 H   0  0  0  0  0  0  0  0  0  0  0  0
  -13.7740   49.9350    6.9370 H   0  0  0  0  0  0  0  0  0  0  0  0
  -14.3380   50.8910    9.0460 H   0  0  0  0  0  0  0  0  0  0  0  0
  -16.6110   51.1890    9.6599 H   0  0  0  0  0  0  0  0  0  0  0  0
  -14.2110   51.9110   -3.7990 H   0  0  0  0  0  0  0  0  0  0  0  0
  -14.6180   57.6910   -1.2900 H   0  0  0  0  0  0  0  0  0  0  0  0
  -18.3596   50.5341    8.1701 H   0  0  0  0  0  0  0  0  0  0  0  0
  1  2  1  0
  1  5  1  0
  1 19  1  0
  1 23  1  0
  2  3  2  0
  2  7  1  0
  3  6  1  0
  3 18  1  0
  4 24  1  0
  4 27  2  0
  4 31  1  0
  5  8  1  0
  6 35  2  0
  7 33  2  0
  8 21  1  0
  9 10  2  0
  9 13  1  0
  9 15  1  0
 10 36  1  0
 11 16  1  0
 11 17  1  0
 11 36  2  0
 12 13  1  0
 13 14  2  0
 15 16  2  0
 17 18  1  0
 18 19  1  0
 19 20  2  0
 21 22  1  0
 21 24  1  0
 22 23  1  0
 24 25  2  0
 24 26  2  0
 27 28  1  0
 28 29  2  0
 29 30  1  0
 30 31  2  0
 31 32  1  0
 32 37  1  0
 32 38  1  0
 32 39  1  0
 33 34  1  0
 33 35  1  0
  5 40  1  0
  5 41  1  0
  6 50  1  0
  7 51  1  0
  8 42  1  0
  8 43  1  0
 10 52  1  0
 15 53  1  0
 16 54  1  0
 17 44  1  0
 17 45  1  0
 22 46  1  0
 22 47  1  0
 23 48  1  0
 23 49  1  0
 27 55  1  0
 28 56  1  0
 29 57  1  0
 30 60  1  0
 35 58  1  0
 36 59  1  0
M  CHG  1  12  -1
M  END
>  <IC50>
540

>  <Total Formal Charge>
-1

>  <Protein>
5Q0W

>  <Favorite_cresset>
false

>  <Protein_cresset>
5Q0W [Unassociated]

>  <MW_cresset>
622.4

>  <#Atoms_cresset>
39

>  <SlogP_cresset>
5.5

>  <TPSA_cresset>
97.8

>  <Flexibility_cresset>
5.2

>  <HBA_cresset>
7

>  <HBD_cresset>
0

>  <Rof5_cresset>
2

>  <Confs_cresset>
0

>  <Poses_cresset>
0

>  <Activity (IC50)_cresset>
6.27

>  <LE (IC50)_cresset>
0.225

>  <LipE (IC50)_cresset>
0.8

$$$$
FXR_89
  xed2sdf           3D
 
 57 61  0  0  0  0  0  0  0  0999 V2000
  -14.5900   51.9441    1.4493 C   0  0  0  0  0  0  0  0  0  0  0  0
  -14.4500   51.7310   -0.0290 C   0  0  0  0  0  0  0  0  0  0  0  0
  -14.4869   52.9629   -0.6739 C   0  0  0  0  0  0  0  0  0  0  0  0
  -15.7421   49.6700    6.3060 C   0  0  0  0  0  0  0  0  0  0  0  0
  -15.9919   51.3769    1.8710 C   0  0  0  0  0  0  0  0  0  0  0  0
  -14.3942   53.0480   -2.0619 C   0  0  0  0  0  0  0  0  0  0  0  0
  -14.3310   50.5581   -0.7679 C   0  0  0  0  0  0  0  0  0  0  0  0
  -16.1289   51.0551    3.3363 C   0  0  0  0  0  0  0  0  0  0  0  0
  -11.4950   58.2312   -0.3820 C   0  0  0  0  0  0  0  0  0  0  0  0
  -12.7259   58.4411   -0.9839 C   0  0  0  0  0  0  0  0  0  0  0  0
  -13.5640   56.3490   -0.1190 C   0  0  0  0  0  0  0  0  0  0  0  0
   -9.5350   59.3699    0.2669 O   0  5  0  0  0  0  0  0  0  0  0  0
  -10.4230   59.2480   -0.5429 C   0  0  0  0  0  0  0  0  0  0  0  0
  -10.5291   59.9969   -1.6280 O   0  0  0  0  0  0  0  0  0  0  0  0
  -11.3061   57.0549    0.3701 C   0  0  0  0  0  0  0  0  0  0  0  0
  -12.3411   56.1250    0.4979 C   0  0  0  0  0  0  0  0  0  0  0  0
  -14.7349   55.4221   -0.0291 C   0  0  0  0  0  0  0  0  0  0  0  0
  -14.5980   53.9881    0.2801 N   0  0  0  0  0  0  0  0  0  0  0  0
  -14.6760   53.4701    1.5502 C   0  0  0  0  0  0  0  0  0  0  0  0
  -14.7950   54.1141    2.5772 O   0  0  0  0  0  0  0  0  0  0  0  0
  -14.9900   50.2181    3.7351 N   0  0  0  0  0  0  0  0  0  0  0  0
  -13.7222   50.9689    3.7450 C   0  0  0  0  0  0  0  0  0  0  0  0
  -13.3721   51.3671    2.3120 C   0  0  0  0  0  0  0  0  0  0  0  0
  -15.2231   48.9679    4.7600 S   0  0  0  0  0  0  0  0  0  0  0  0
  -13.9479   48.3580    4.9690 O   0  0  0  0  0  0  0  0  0  0  0  0
  -16.2960   48.1908    4.2260 O   0  0  0  0  0  0  0  0  0  0  0  0
  -14.7340   50.0581    7.1891 C   0  0  0  0  0  0  0  0  0  0  0  0
  -15.0630   50.6141    8.4161 C   0  0  0  0  0  0  0  0  0  0  0  0
  -16.3852   50.7870    8.7729 C   0  0  0  0  0  0  0  0  0  0  0  0
  -17.4031   50.4071    7.9078 C   0  0  0  0  0  0  0  0  0  0  0  0
  -17.0849   49.8511    6.6781 C   0  0  0  0  0  0  0  0  0  0  0  0
  -14.2420   50.6550   -2.1440 C   0  0  0  0  0  0  0  0  0  0  0  0
  -14.0802   49.0641   -3.1581 Br  0  0  0  0  0  0  0  0  0  0  0  0
  -14.2741   51.8739   -2.8022 C   0  0  0  0  0  0  0  0  0  0  0  0
  -13.7370   57.5171   -0.8499 C   0  0  0  0  0  0  0  0  0  0  0  0
  -16.6110   51.1889    9.6600 Cl  0  0  0  0  0  0  0  0  0  0  0  0
  -16.6881   52.0548    1.6330 H   0  0  0  0  0  0  0  0  0  0  0  0
  -16.1610   50.5401    1.3500 H   0  0  0  0  0  0  0  0  0  0  0  0
  -16.1340   51.8999    3.8701 H   0  0  0  0  0  0  0  0  0  0  0  0
  -16.9851   50.5631    3.4980 H   0  0  0  0  0  0  0  0  0  0  0  0
  -15.3360   55.8019    0.6741 H   0  0  0  0  0  0  0  0  0  0  0  0
  -15.1978   55.4719   -0.9140 H   0  0  0  0  0  0  0  0  0  0  0  0
  -13.8200   51.7891    4.3101 H   0  0  0  0  0  0  0  0  0  0  0  0
  -12.9939   50.3980    4.1240 H   0  0  0  0  0  0  0  0  0  0  0  0
  -13.0139   50.5602    1.8431 H   0  0  0  0  0  0  0  0  0  0  0  0
  -12.6580   52.0659    2.3490 H   0  0  0  0  0  0  0  0  0  0  0  0
  -14.4129   53.9370   -2.5190 H   0  0  0  0  0  0  0  0  0  0  0  0
  -14.3099   49.6670   -0.3150 H   0  0  0  0  0  0  0  0  0  0  0  0
  -12.8810   59.2711   -1.5199 H   0  0  0  0  0  0  0  0  0  0  0  0
  -10.4271   56.8851    0.8151 H   0  0  0  0  0  0  0  0  0  0  0  0
  -12.2002   55.2940    1.0370 H   0  0  0  0  0  0  0  0  0  0  0  0
  -13.7740   49.9351    6.9370 H   0  0  0  0  0  0  0  0  0  0  0  0
  -14.3380   50.8910    9.0459 H   0  0  0  0  0  0  0  0  0  0  0  0
  -14.2109   51.9110   -3.7990 H   0  0  0  0  0  0  0  0  0  0  0  0
  -14.6179   57.6909   -1.2899 H   0  0  0  0  0  0  0  0  0  0  0  0
  -18.3597   50.5341    8.1702 H   0  0  0  0  0  0  0  0  0  0  0  0
  -17.8154   49.5767    6.0527 H   0  0  0  0  0  0  0  0  0  0  0  0
  1  2  1  0
  1  5  1  0
  1 19  1  0
  1 23  1  0
  2  3  2  0
  2  7  1  0
  3  6  1  0
  3 18  1  0
  4 24  1  0
  4 27  2  0
  4 31  1  0
  5  8  1  0
  6 34  2  0
  7 32  2  0
  8 21  1  0
  9 10  2  0
  9 13  1  0
  9 15  1  0
 10 35  1  0
 11 16  1  0
 11 17  1  0
 11 35  2  0
 12 13  1  0
 13 14  2  0
 15 16  2  0
 17 18  1  0
 18 19  1  0
 19 20  2  0
 21 22  1  0
 21 24  1  0
 22 23  1  0
 24 25  2  0
 24 26  2  0
 27 28  1  0
 28 29  2  0
 29 30  1  0
 29 36  1  0
 30 31  2  0
 32 33  1  0
 32 34  1  0
  5 37  1  0
  5 38  1  0
  6 47  1  0
  7 48  1  0
  8 39  1  0
  8 40  1  0
 10 49  1  0
 15 50  1  0
 16 51  1  0
 17 41  1  0
 17 42  1  0
 22 43  1  0
 22 44  1  0
 23 45  1  0
 23 46  1  0
 27 52  1  0
 28 53  1  0
 30 56  1  0
 31 57  1  0
 34 54  1  0
 35 55  1  0
M  CHG  1  12  -1
M  END
>  <IC50>
735

>  <Total Formal Charge>
-1

>  <Protein>
5Q0W

>  <Favorite_cresset>
false

>  <Protein_cresset>
5Q0W [Unassociated]

>  <MW_cresset>
588.9

>  <#Atoms_cresset>
36

>  <SlogP_cresset>
5.2

>  <TPSA_cresset>
97.8

>  <Flexibility_cresset>
5.2

>  <HBA_cresset>
7

>  <HBD_cresset>
0

>  <Rof5_cresset>
2

>  <Confs_cresset>
0

>  <Poses_cresset>
0

>  <Activity (IC50)_cresset>
6.13

>  <LE (IC50)_cresset>
0.238

>  <LipE (IC50)_cresset>
1.0

$$$$
FXR_82
  xed2sdf           3D
 
 57 61  0  0  0  0  0  0  0  0999 V2000
  -14.5901   51.9441    1.4490 C   0  0  0  0  0  0  0  0  0  0  0  0
  -14.4501   51.7311   -0.0290 C   0  0  0  0  0  0  0  0  0  0  0  0
  -14.4870   52.9629   -0.6740 C   0  0  0  0  0  0  0  0  0  0  0  0
  -15.7420   49.6698    6.3061 C   0  0  0  0  0  0  0  0  0  0  0  0
  -15.9919   51.3769    1.8710 C   0  0  0  0  0  0  0  0  0  0  0  0
  -14.3941   53.0481   -2.0619 C   0  0  0  0  0  0  0  0  0  0  0  0
  -14.3309   50.5580   -0.7680 C   0  0  0  0  0  0  0  0  0  0  0  0
  -16.1290   51.0550    3.3362 C   0  0  0  0  0  0  0  0  0  0  0  0
  -11.4951   58.2310   -0.3821 C   0  0  0  0  0  0  0  0  0  0  0  0
  -12.7260   58.4410   -0.9839 C   0  0  0  0  0  0  0  0  0  0  0  0
  -13.5640   56.3491   -0.1191 C   0  0  0  0  0  0  0  0  0  0  0  0
   -9.5350   59.3699    0.2670 O   0  5  0  0  0  0  0  0  0  0  0  0
  -10.4229   59.2480   -0.5429 C   0  0  0  0  0  0  0  0  0  0  0  0
  -10.5289   59.9969   -1.6281 O   0  0  0  0  0  0  0  0  0  0  0  0
  -11.3061   57.0550    0.3701 C   0  0  0  0  0  0  0  0  0  0  0  0
  -12.3410   56.1250    0.4980 C   0  0  0  0  0  0  0  0  0  0  0  0
  -14.7349   55.4220   -0.0291 C   0  0  0  0  0  0  0  0  0  0  0  0
  -14.5981   53.9881    0.2800 N   0  0  0  0  0  0  0  0  0  0  0  0
  -14.6761   53.4701    1.5500 C   0  0  0  0  0  0  0  0  0  0  0  0
  -14.7951   54.1141    2.5770 O   0  0  0  0  0  0  0  0  0  0  0  0
  -14.9900   50.2181    3.7351 N   0  0  0  0  0  0  0  0  0  0  0  0
  -13.7220   50.9690    3.7450 C   0  0  0  0  0  0  0  0  0  0  0  0
  -13.3721   51.3670    2.3121 C   0  0  0  0  0  0  0  0  0  0  0  0
  -15.2230   48.9680    4.7600 S   0  0  0  0  0  0  0  0  0  0  0  0
  -13.9480   48.3581    4.9690 O   0  0  0  0  0  0  0  0  0  0  0  0
  -16.2961   48.1909    4.2260 O   0  0  0  0  0  0  0  0  0  0  0  0
  -14.7340   50.0581    7.1890 C   0  0  0  0  0  0  0  0  0  0  0  0
  -15.0630   50.6140    8.4162 C   0  0  0  0  0  0  0  0  0  0  0  0
  -16.3852   50.7869    8.7730 C   0  0  0  0  0  0  0  0  0  0  0  0
  -17.4032   50.4071    7.9080 C   0  0  0  0  0  0  0  0  0  0  0  0
  -17.0849   49.8511    6.6781 C   0  0  0  0  0  0  0  0  0  0  0  0
  -18.3881   49.3930    5.6340 F   0  0  0  0  0  0  0  0  0  0  0  0
  -14.2420   50.6552   -2.1441 C   0  0  0  0  0  0  0  0  0  0  0  0
  -14.0800   49.0640   -3.1581 Br  0  0  0  0  0  0  0  0  0  0  0  0
  -14.2740   51.8740   -2.8020 C   0  0  0  0  0  0  0  0  0  0  0  0
  -13.7371   57.5170   -0.8499 C   0  0  0  0  0  0  0  0  0  0  0  0
  -18.8738   50.2918    8.2621 Cl  0  0  0  0  0  0  0  0  0  0  0  0
  -16.6881   52.0549    1.6331 H   0  0  0  0  0  0  0  0  0  0  0  0
  -16.1610   50.5400    1.3501 H   0  0  0  0  0  0  0  0  0  0  0  0
  -16.1341   51.8999    3.8700 H   0  0  0  0  0  0  0  0  0  0  0  0
  -16.9850   50.5630    3.4980 H   0  0  0  0  0  0  0  0  0  0  0  0
  -15.3360   55.8019    0.6739 H   0  0  0  0  0  0  0  0  0  0  0  0
  -15.1980   55.4719   -0.9140 H   0  0  0  0  0  0  0  0  0  0  0  0
  -13.8201   51.7891    4.3101 H   0  0  0  0  0  0  0  0  0  0  0  0
  -12.9939   50.3980    4.1239 H   0  0  0  0  0  0  0  0  0  0  0  0
  -13.0139   50.5602    1.8431 H   0  0  0  0  0  0  0  0  0  0  0  0
  -12.6579   52.0659    2.3489 H   0  0  0  0  0  0  0  0  0  0  0  0
  -14.4130   53.9370   -2.5191 H   0  0  0  0  0  0  0  0  0  0  0  0
  -14.3100   49.6671   -0.3150 H   0  0  0  0  0  0  0  0  0  0  0  0
  -12.8810   59.2710   -1.5200 H   0  0  0  0  0  0  0  0  0  0  0  0
  -10.4270   56.8850    0.8151 H   0  0  0  0  0  0  0  0  0  0  0  0
  -12.2000   55.2938    1.0369 H   0  0  0  0  0  0  0  0  0  0  0  0
  -13.7740   49.9349    6.9369 H   0  0  0  0  0  0  0  0  0  0  0  0
  -14.3380   50.8910    9.0459 H   0  0  0  0  0  0  0  0  0  0  0  0
  -16.6110   51.1890    9.6599 H   0  0  0  0  0  0  0  0  0  0  0  0
  -14.2110   51.9110   -3.7989 H   0  0  0  0  0  0  0  0  0  0  0  0
  -14.6179   57.6911   -1.2899 H   0  0  0  0  0  0  0  0  0  0  0  0
  1  2  1  0
  1  5  1  0
  1 19  1  0
  1 23  1  0
  2  3  2  0
  2  7  1  0
  3  6  1  0
  3 18  1  0
  4 24  1  0
  4 27  2  0
  4 31  1  0
  5  8  1  0
  6 35  2  0
  7 33  2  0
  8 21  1  0
  9 10  2  0
  9 13  1  0
  9 15  1  0
 10 36  1  0
 11 16  1  0
 11 17  1  0
 11 36  2  0
 12 13  1  0
 13 14  2  0
 15 16  2  0
 17 18  1  0
 18 19  1  0
 19 20  2  0
 21 22  1  0
 21 24  1  0
 22 23  1  0
 24 25  2  0
 24 26  2  0
 27 28  1  0
 28 29  2  0
 29 30  1  0
 30 31  2  0
 30 37  1  0
 31 32  1  0
 33 34  1  0
 33 35  1  0
  5 38  1  0
  5 39  1  0
  6 48  1  0
  7 49  1  0
  8 40  1  0
  8 41  1  0
 10 50  1  0
 15 51  1  0
 16 52  1  0
 17 42  1  0
 17 43  1  0
 22 44  1  0
 22 45  1  0
 23 46  1  0
 23 47  1  0
 27 53  1  0
 28 54  1  0
 29 55  1  0
 35 56  1  0
 36 57  1  0
M  CHG  1  12  -1
M  END
>  <IC50>
180

>  <Total Formal Charge>
-1

>  <Protein>
5Q0W

>  <Favorite_cresset>
false

>  <Protein_cresset>
5Q0W [Unassociated]

>  <MW_cresset>
606.9

>  <#Atoms_cresset>
37

>  <SlogP_cresset>
5.6

>  <TPSA_cresset>
97.8

>  <Flexibility_cresset>
5.2

>  <HBA_cresset>
7

>  <HBD_cresset>
0

>  <Rof5_cresset>
2

>  <Confs_cresset>
0

>  <Poses_cresset>
0

>  <Activity (IC50)_cresset>
6.74

>  <LE (IC50)_cresset>
0.255

>  <LipE (IC50)_cresset>
1.2

$$$$
FXR_84
  xed2sdf           3D
 
 57 61  0  0  0  0  0  0  0  0999 V2000
  -14.5901   51.9441    1.4491 C   0  0  0  0  0  0  0  0  0  0  0  0
  -14.4500   51.7311   -0.0289 C   0  0  0  0  0  0  0  0  0  0  0  0
  -14.4870   52.9629   -0.6740 C   0  0  0  0  0  0  0  0  0  0  0  0
  -15.7420   49.6698    6.3061 C   0  0  0  0  0  0  0  0  0  0  0  0
  -15.9920   51.3770    1.8709 C   0  0  0  0  0  0  0  0  0  0  0  0
  -14.3941   53.0481   -2.0619 C   0  0  0  0  0  0  0  0  0  0  0  0
  -14.3310   50.5580   -0.7680 C   0  0  0  0  0  0  0  0  0  0  0  0
  -16.1290   51.0550    3.3362 C   0  0  0  0  0  0  0  0  0  0  0  0
  -11.4950   58.2310   -0.3821 C   0  0  0  0  0  0  0  0  0  0  0  0
  -12.7259   58.4409   -0.9839 C   0  0  0  0  0  0  0  0  0  0  0  0
  -13.5639   56.3490   -0.1191 C   0  0  0  0  0  0  0  0  0  0  0  0
   -9.5351   59.3699    0.2670 O   0  5  0  0  0  0  0  0  0  0  0  0
  -10.4229   59.2480   -0.5430 C   0  0  0  0  0  0  0  0  0  0  0  0
  -10.5290   59.9969   -1.6281 O   0  0  0  0  0  0  0  0  0  0  0  0
  -11.3061   57.0549    0.3701 C   0  0  0  0  0  0  0  0  0  0  0  0
  -12.3410   56.1251    0.4979 C   0  0  0  0  0  0  0  0  0  0  0  0
  -14.7350   55.4221   -0.0292 C   0  0  0  0  0  0  0  0  0  0  0  0
  -14.5980   53.9881    0.2800 N   0  0  0  0  0  0  0  0  0  0  0  0
  -14.6761   53.4701    1.5499 C   0  0  0  0  0  0  0  0  0  0  0  0
  -14.7950   54.1139    2.5770 O   0  0  0  0  0  0  0  0  0  0  0  0
  -14.9900   50.2180    3.7350 N   0  0  0  0  0  0  0  0  0  0  0  0
  -13.7221   50.9690    3.7449 C   0  0  0  0  0  0  0  0  0  0  0  0
  -13.3721   51.3670    2.3120 C   0  0  0  0  0  0  0  0  0  0  0  0
  -15.2230   48.9679    4.7601 S   0  0  0  0  0  0  0  0  0  0  0  0
  -13.9479   48.3581    4.9690 O   0  0  0  0  0  0  0  0  0  0  0  0
  -16.2961   48.1909    4.2259 O   0  0  0  0  0  0  0  0  0  0  0  0
  -14.7340   50.0581    7.1890 C   0  0  0  0  0  0  0  0  0  0  0  0
  -15.0630   50.6140    8.4162 C   0  0  0  0  0  0  0  0  0  0  0  0
  -16.3851   50.7869    8.7729 C   0  0  0  0  0  0  0  0  0  0  0  0
  -17.4030   50.4072    7.9080 C   0  0  0  0  0  0  0  0  0  0  0  0
  -17.0849   49.8512    6.6781 C   0  0  0  0  0  0  0  0  0  0  0  0
  -18.3881   49.3930    5.6340 F   0  0  0  0  0  0  0  0  0  0  0  0
  -14.2419   50.6552   -2.1441 C   0  0  0  0  0  0  0  0  0  0  0  0
  -14.0800   49.0641   -3.1581 Br  0  0  0  0  0  0  0  0  0  0  0  0
  -14.2740   51.8738   -2.8020 C   0  0  0  0  0  0  0  0  0  0  0  0
  -13.7370   57.5171   -0.8499 C   0  0  0  0  0  0  0  0  0  0  0  0
  -16.6880   52.0550    1.6330 H   0  0  0  0  0  0  0  0  0  0  0  0
  -16.1609   50.5400    1.3501 H   0  0  0  0  0  0  0  0  0  0  0  0
  -16.1341   51.8999    3.8699 H   0  0  0  0  0  0  0  0  0  0  0  0
  -16.9850   50.5630    3.4980 H   0  0  0  0  0  0  0  0  0  0  0  0
  -15.3359   55.8020    0.6739 H   0  0  0  0  0  0  0  0  0  0  0  0
  -15.1980   55.4719   -0.9140 H   0  0  0  0  0  0  0  0  0  0  0  0
  -13.8200   51.7890    4.3101 H   0  0  0  0  0  0  0  0  0  0  0  0
  -12.9940   50.3981    4.1239 H   0  0  0  0  0  0  0  0  0  0  0  0
  -13.0139   50.5602    1.8431 H   0  0  0  0  0  0  0  0  0  0  0  0
  -12.6579   52.0659    2.3489 H   0  0  0  0  0  0  0  0  0  0  0  0
  -14.4129   53.9370   -2.5191 H   0  0  0  0  0  0  0  0  0  0  0  0
  -14.3100   49.6671   -0.3149 H   0  0  0  0  0  0  0  0  0  0  0  0
  -12.8810   59.2710   -1.5201 H   0  0  0  0  0  0  0  0  0  0  0  0
  -10.4271   56.8851    0.8150 H   0  0  0  0  0  0  0  0  0  0  0  0
  -12.2000   55.2939    1.0369 H   0  0  0  0  0  0  0  0  0  0  0  0
  -13.7739   49.9349    6.9369 H   0  0  0  0  0  0  0  0  0  0  0  0
  -14.3379   50.8910    9.0459 H   0  0  0  0  0  0  0  0  0  0  0  0
  -16.6110   51.1890    9.6599 H   0  0  0  0  0  0  0  0  0  0  0  0
  -14.2111   51.9110   -3.7991 H   0  0  0  0  0  0  0  0  0  0  0  0
  -14.6179   57.6911   -1.2900 H   0  0  0  0  0  0  0  0  0  0  0  0
  -18.3597   50.5343    8.1703 H   0  0  0  0  0  0  0  0  0  0  0  0
  1  2  1  0
  1  5  1  0
  1 19  1  0
  1 23  1  0
  2  3  2  0
  2  7  1  0
  3  6  1  0
  3 18  1  0
  4 24  1  0
  4 27  2  0
  4 31  1  0
  5  8  1  0
  6 35  2  0
  7 33  2  0
  8 21  1  0
  9 10  2  0
  9 13  1  0
  9 15  1  0
 10 36  1  0
 11 16  1  0
 11 17  1  0
 11 36  2  0
 12 13  1  0
 13 14  2  0
 15 16  2  0
 17 18  1  0
 18 19  1  0
 19 20  2  0
 21 22  1  0
 21 24  1  0
 22 23  1  0
 24 25  2  0
 24 26  2  0
 27 28  1  0
 28 29  2  0
 29 30  1  0
 30 31  2  0
 31 32  1  0
 33 34  1  0
 33 35  1  0
  5 37  1  0
  5 38  1  0
  6 47  1  0
  7 48  1  0
  8 39  1  0
  8 40  1  0
 10 49  1  0
 15 50  1  0
 16 51  1  0
 17 41  1  0
 17 42  1  0
 22 43  1  0
 22 44  1  0
 23 45  1  0
 23 46  1  0
 27 52  1  0
 28 53  1  0
 29 54  1  0
 30 57  1  0
 35 55  1  0
 36 56  1  0
M  CHG  1  12  -1
M  END
>  <IC50>
4540

>  <Total Formal Charge>
-1

>  <Protein>
5Q0W

>  <Favorite_cresset>
false

>  <Protein_cresset>
5Q0W [Unassociated]

>  <MW_cresset>
572.4

>  <#Atoms_cresset>
36

>  <SlogP_cresset>
4.9

>  <TPSA_cresset>
97.8

>  <Flexibility_cresset>
5.2

>  <HBA_cresset>
7

>  <HBD_cresset>
0

>  <Rof5_cresset>
1

>  <Confs_cresset>
0

>  <Poses_cresset>
0

>  <Activity (IC50)_cresset>
5.34

>  <LE (IC50)_cresset>
0.208

>  <LipE (IC50)_cresset>
0.4

$$$$
FXR_83
  xed2sdf           3D
 
 57 61  0  0  0  0  0  0  0  0999 V2000
  -14.5902   51.9441    1.4491 C   0  0  0  0  0  0  0  0  0  0  0  0
  -14.4501   51.7311   -0.0290 C   0  0  0  0  0  0  0  0  0  0  0  0
  -14.4871   52.9629   -0.6740 C   0  0  0  0  0  0  0  0  0  0  0  0
  -15.7420   49.6699    6.3061 C   0  0  0  0  0  0  0  0  0  0  0  0
  -15.9920   51.3769    1.8710 C   0  0  0  0  0  0  0  0  0  0  0  0
  -14.3940   53.0481   -2.0619 C   0  0  0  0  0  0  0  0  0  0  0  0
  -14.3310   50.5580   -0.7679 C   0  0  0  0  0  0  0  0  0  0  0  0
  -16.1291   51.0550    3.3362 C   0  0  0  0  0  0  0  0  0  0  0  0
  -11.4951   58.2309   -0.3821 C   0  0  0  0  0  0  0  0  0  0  0  0
  -12.7260   58.4409   -0.9840 C   0  0  0  0  0  0  0  0  0  0  0  0
  -13.5640   56.3491   -0.1191 C   0  0  0  0  0  0  0  0  0  0  0  0
   -9.5350   59.3699    0.2670 O   0  5  0  0  0  0  0  0  0  0  0  0
  -10.4229   59.2480   -0.5429 C   0  0  0  0  0  0  0  0  0  0  0  0
  -10.5289   59.9969   -1.6281 O   0  0  0  0  0  0  0  0  0  0  0  0
  -11.3060   57.0550    0.3701 C   0  0  0  0  0  0  0  0  0  0  0  0
  -12.3411   56.1250    0.4980 C   0  0  0  0  0  0  0  0  0  0  0  0
  -14.7349   55.4220   -0.0291 C   0  0  0  0  0  0  0  0  0  0  0  0
  -14.5981   53.9881    0.2800 N   0  0  0  0  0  0  0  0  0  0  0  0
  -14.6760   53.4701    1.5500 C   0  0  0  0  0  0  0  0  0  0  0  0
  -14.7951   54.1140    2.5770 O   0  0  0  0  0  0  0  0  0  0  0  0
  -14.9900   50.2181    3.7351 N   0  0  0  0  0  0  0  0  0  0  0  0
  -13.7220   50.9689    3.7450 C   0  0  0  0  0  0  0  0  0  0  0  0
  -13.3720   51.3670    2.3121 C   0  0  0  0  0  0  0  0  0  0  0  0
  -15.2230   48.9680    4.7600 S   0  0  0  0  0  0  0  0  0  0  0  0
  -13.9480   48.3581    4.9690 O   0  0  0  0  0  0  0  0  0  0  0  0
  -16.2962   48.1909    4.2260 O   0  0  0  0  0  0  0  0  0  0  0  0
  -14.7340   50.0580    7.1889 C   0  0  0  0  0  0  0  0  0  0  0  0
  -15.0631   50.6140    8.4161 C   0  0  0  0  0  0  0  0  0  0  0  0
  -16.3852   50.7869    8.7730 C   0  0  0  0  0  0  0  0  0  0  0  0
  -17.4032   50.4071    7.9080 C   0  0  0  0  0  0  0  0  0  0  0  0
  -17.0849   49.8511    6.6781 C   0  0  0  0  0  0  0  0  0  0  0  0
  -14.2420   50.6551   -2.1441 C   0  0  0  0  0  0  0  0  0  0  0  0
  -14.0801   49.0641   -3.1580 Br  0  0  0  0  0  0  0  0  0  0  0  0
  -14.2740   51.8739   -2.8021 C   0  0  0  0  0  0  0  0  0  0  0  0
  -13.7370   57.5171   -0.8499 C   0  0  0  0  0  0  0  0  0  0  0  0
  -18.8532   50.2724    8.3920 Cl  0  0  0  0  0  0  0  0  0  0  0  0
  -13.3217   49.8524    6.8632 Cl  0  0  0  0  0  0  0  0  0  0  0  0
  -16.6881   52.0550    1.6330 H   0  0  0  0  0  0  0  0  0  0  0  0
  -16.1609   50.5400    1.3502 H   0  0  0  0  0  0  0  0  0  0  0  0
  -16.1340   51.9000    3.8699 H   0  0  0  0  0  0  0  0  0  0  0  0
  -16.9851   50.5630    3.4979 H   0  0  0  0  0  0  0  0  0  0  0  0
  -15.3359   55.8019    0.6739 H   0  0  0  0  0  0  0  0  0  0  0  0
  -15.1980   55.4719   -0.9141 H   0  0  0  0  0  0  0  0  0  0  0  0
  -13.8201   51.7891    4.3100 H   0  0  0  0  0  0  0  0  0  0  0  0
  -12.9940   50.3981    4.1240 H   0  0  0  0  0  0  0  0  0  0  0  0
  -13.0140   50.5602    1.8430 H   0  0  0  0  0  0  0  0  0  0  0  0
  -12.6578   52.0659    2.3489 H   0  0  0  0  0  0  0  0  0  0  0  0
  -14.4129   53.9370   -2.5191 H   0  0  0  0  0  0  0  0  0  0  0  0
  -14.3100   49.6671   -0.3150 H   0  0  0  0  0  0  0  0  0  0  0  0
  -12.8810   59.2710   -1.5201 H   0  0  0  0  0  0  0  0  0  0  0  0
  -10.4271   56.8850    0.8151 H   0  0  0  0  0  0  0  0  0  0  0  0
  -12.2000   55.2938    1.0369 H   0  0  0  0  0  0  0  0  0  0  0  0
  -14.3380   50.8910    9.0459 H   0  0  0  0  0  0  0  0  0  0  0  0
  -16.6111   51.1889    9.6599 H   0  0  0  0  0  0  0  0  0  0  0  0
  -14.2111   51.9110   -3.7990 H   0  0  0  0  0  0  0  0  0  0  0  0
  -14.6178   57.6912   -1.2900 H   0  0  0  0  0  0  0  0  0  0  0  0
  -17.8149   49.5428    6.0681 H   0  0  0  0  0  0  0  0  0  0  0  0
  1  2  1  0
  1  5  1  0
  1 19  1  0
  1 23  1  0
  2  3  2  0
  2  7  1  0
  3  6  1  0
  3 18  1  0
  4 24  1  0
  4 27  2  0
  4 31  1  0
  5  8  1  0
  6 34  2  0
  7 32  2  0
  8 21  1  0
  9 10  2  0
  9 13  1  0
  9 15  1  0
 10 35  1  0
 11 16  1  0
 11 17  1  0
 11 35  2  0
 12 13  1  0
 13 14  2  0
 15 16  2  0
 17 18  1  0
 18 19  1  0
 19 20  2  0
 21 22  1  0
 21 24  1  0
 22 23  1  0
 24 25  2  0
 24 26  2  0
 27 28  1  0
 27 37  1  0
 28 29  2  0
 29 30  1  0
 30 31  2  0
 30 36  1  0
 32 33  1  0
 32 34  1  0
  5 38  1  0
  5 39  1  0
  6 48  1  0
  7 49  1  0
  8 40  1  0
  8 41  1  0
 10 50  1  0
 15 51  1  0
 16 52  1  0
 17 42  1  0
 17 43  1  0
 22 44  1  0
 22 45  1  0
 23 46  1  0
 23 47  1  0
 28 53  1  0
 29 54  1  0
 31 57  1  0
 34 55  1  0
 35 56  1  0
M  CHG  1  12  -1
M  END
>  <IC50>
330

>  <Total Formal Charge>
-1

>  <Protein>
5Q0W

>  <Favorite_cresset>
false

>  <Protein_cresset>
5Q0W [Unassociated]

>  <MW_cresset>
623.3

>  <#Atoms_cresset>
37

>  <SlogP_cresset>
5.8

>  <TPSA_cresset>
97.8

>  <Flexibility_cresset>
5.2

>  <HBA_cresset>
7

>  <HBD_cresset>
0

>  <Rof5_cresset>
2

>  <Confs_cresset>
0

>  <Poses_cresset>
0

>  <Activity (IC50)_cresset>
6.48

>  <LE (IC50)_cresset>
0.245

>  <LipE (IC50)_cresset>
0.6

$$$$
FXR_76
  xed2sdf           3D
 
 57 61  0  0  0  0  0  0  0  0999 V2000
  -14.5901   51.9440    1.4490 C   0  0  0  0  0  0  0  0  0  0  0  0
  -14.4501   51.7310   -0.0289 C   0  0  0  0  0  0  0  0  0  0  0  0
  -14.4869   52.9629   -0.6740 C   0  0  0  0  0  0  0  0  0  0  0  0
  -15.7420   49.6699    6.3060 C   0  0  0  0  0  0  0  0  0  0  0  0
  -15.9920   51.3770    1.8710 C   0  0  0  0  0  0  0  0  0  0  0  0
  -14.3940   53.0481   -2.0620 C   0  0  0  0  0  0  0  0  0  0  0  0
  -14.3310   50.5580   -0.7679 C   0  0  0  0  0  0  0  0  0  0  0  0
  -16.1290   51.0550    3.3361 C   0  0  0  0  0  0  0  0  0  0  0  0
  -11.4951   58.2310   -0.3821 C   0  0  0  0  0  0  0  0  0  0  0  0
  -12.7260   58.4410   -0.9840 C   0  0  0  0  0  0  0  0  0  0  0  0
  -13.5639   56.3490   -0.1190 C   0  0  0  0  0  0  0  0  0  0  0  0
   -9.5350   59.3700    0.2670 O   0  5  0  0  0  0  0  0  0  0  0  0
  -10.4230   59.2480   -0.5430 C   0  0  0  0  0  0  0  0  0  0  0  0
  -10.5290   59.9969   -1.6280 O   0  0  0  0  0  0  0  0  0  0  0  0
  -11.3059   57.0551    0.3700 C   0  0  0  0  0  0  0  0  0  0  0  0
  -12.3410   56.1250    0.4979 C   0  0  0  0  0  0  0  0  0  0  0  0
  -14.7350   55.4220   -0.0290 C   0  0  0  0  0  0  0  0  0  0  0  0
  -14.5980   53.9879    0.2800 N   0  0  0  0  0  0  0  0  0  0  0  0
  -14.6761   53.4701    1.5499 C   0  0  0  0  0  0  0  0  0  0  0  0
  -14.7950   54.1140    2.5770 O   0  0  0  0  0  0  0  0  0  0  0  0
  -14.9900   50.2180    3.7350 N   0  0  0  0  0  0  0  0  0  0  0  0
  -13.7220   50.9690    3.7450 C   0  0  0  0  0  0  0  0  0  0  0  0
  -13.3721   51.3671    2.3120 C   0  0  0  0  0  0  0  0  0  0  0  0
  -15.2230   48.9680    4.7601 S   0  0  0  0  0  0  0  0  0  0  0  0
  -13.9480   48.3581    4.9690 O   0  0  0  0  0  0  0  0  0  0  0  0
  -16.2960   48.1909    4.2260 O   0  0  0  0  0  0  0  0  0  0  0  0
  -14.7340   50.0580    7.1890 C   0  0  0  0  0  0  0  0  0  0  0  0
  -15.0630   50.6141    8.4162 C   0  0  0  0  0  0  0  0  0  0  0  0
  -16.3851   50.7870    8.7730 C   0  0  0  0  0  0  0  0  0  0  0  0
  -17.4030   50.4070    7.9079 C   0  0  0  0  0  0  0  0  0  0  0  0
  -17.0850   49.8511    6.6779 C   0  0  0  0  0  0  0  0  0  0  0  0
  -14.2421   50.6550   -2.1439 C   0  0  0  0  0  0  0  0  0  0  0  0
  -14.0799   49.0640   -3.1580 Br  0  0  0  0  0  0  0  0  0  0  0  0
  -14.2740   51.8741   -2.8020 C   0  0  0  0  0  0  0  0  0  0  0  0
  -13.7371   57.5170   -0.8499 C   0  0  0  0  0  0  0  0  0  0  0  0
  -16.6880   52.0550    1.6330 H   0  0  0  0  0  0  0  0  0  0  0  0
  -16.1609   50.5400    1.3500 H   0  0  0  0  0  0  0  0  0  0  0  0
  -16.1340   51.9001    3.8700 H   0  0  0  0  0  0  0  0  0  0  0  0
  -16.9851   50.5631    3.4981 H   0  0  0  0  0  0  0  0  0  0  0  0
  -15.3360   55.8019    0.6740 H   0  0  0  0  0  0  0  0  0  0  0  0
  -15.1980   55.4720   -0.9140 H   0  0  0  0  0  0  0  0  0  0  0  0
  -13.8200   51.7891    4.3101 H   0  0  0  0  0  0  0  0  0  0  0  0
  -12.9940   50.3981    4.1240 H   0  0  0  0  0  0  0  0  0  0  0  0
  -13.0140   50.5600    1.8430 H   0  0  0  0  0  0  0  0  0  0  0  0
  -12.6580   52.0659    2.3490 H   0  0  0  0  0  0  0  0  0  0  0  0
  -14.4130   53.9370   -2.5190 H   0  0  0  0  0  0  0  0  0  0  0  0
  -14.3100   49.6671   -0.3150 H   0  0  0  0  0  0  0  0  0  0  0  0
  -12.8810   59.2710   -1.5200 H   0  0  0  0  0  0  0  0  0  0  0  0
  -10.4271   56.8851    0.8150 H   0  0  0  0  0  0  0  0  0  0  0  0
  -12.2000   55.2939    1.0370 H   0  0  0  0  0  0  0  0  0  0  0  0
  -13.7739   49.9351    6.9369 H   0  0  0  0  0  0  0  0  0  0  0  0
  -14.3380   50.8909    9.0459 H   0  0  0  0  0  0  0  0  0  0  0  0
  -16.6109   51.1889    9.6599 H   0  0  0  0  0  0  0  0  0  0  0  0
  -18.3600   50.5340    8.1709 H   0  0  0  0  0  0  0  0  0  0  0  0
  -14.2110   51.9110   -3.7990 H   0  0  0  0  0  0  0  0  0  0  0  0
  -14.6179   57.6911   -1.2899 H   0  0  0  0  0  0  0  0  0  0  0  0
  -17.8154   49.5768    6.0525 H   0  0  0  0  0  0  0  0  0  0  0  0
  1  2  1  0
  1  5  1  0
  1 19  1  0
  1 23  1  0
  2  3  2  0
  2  7  1  0
  3  6  1  0
  3 18  1  0
  4 24  1  0
  4 27  2  0
  4 31  1  0
  5  8  1  0
  6 34  2  0
  7 32  2  0
  8 21  1  0
  9 10  2  0
  9 13  1  0
  9 15  1  0
 10 35  1  0
 11 16  1  0
 11 17  1  0
 11 35  2  0
 12 13  1  0
 13 14  2  0
 15 16  2  0
 17 18  1  0
 18 19  1  0
 19 20  2  0
 21 22  1  0
 21 24  1  0
 22 23  1  0
 24 25  2  0
 24 26  2  0
 27 28  1  0
 28 29  2  0
 29 30  1  0
 30 31  2  0
 32 33  1  0
 32 34  1  0
  5 36  1  0
  5 37  1  0
  6 46  1  0
  7 47  1  0
  8 38  1  0
  8 39  1  0
 10 48  1  0
 15 49  1  0
 16 50  1  0
 17 40  1  0
 17 41  1  0
 22 42  1  0
 22 43  1  0
 23 44  1  0
 23 45  1  0
 27 51  1  0
 28 52  1  0
 29 53  1  0
 30 54  1  0
 31 57  1  0
 34 55  1  0
 35 56  1  0
M  CHG  1  12  -1
M  END
>  <IC50>
41800

>  <Total Formal Charge>
-1

>  <Protein>
5Q0W

>  <Favorite_cresset>
false

>  <Protein_cresset>
5Q0W [Unassociated]

>  <MW_cresset>
554.4

>  <#Atoms_cresset>
35

>  <SlogP_cresset>
4.5

>  <TPSA_cresset>
97.8

>  <Flexibility_cresset>
5.2

>  <HBA_cresset>
7

>  <HBD_cresset>
0

>  <Rof5_cresset>
1

>  <Confs_cresset>
0

>  <Poses_cresset>
0

>  <Activity (IC50)_cresset>
4.38

>  <LE (IC50)_cresset>
0.175

>  <LipE (IC50)_cresset>
-0.1

$$$$
FXR_74
  xed2sdf           3D
 
 57 61  0  0  0  0  0  0  0  0999 V2000
  -14.5900   51.9441    1.4490 C   0  0  0  0  0  0  0  0  0  0  0  0
  -14.4501   51.7310   -0.0290 C   0  0  0  0  0  0  0  0  0  0  0  0
  -14.4870   52.9629   -0.6741 C   0  0  0  0  0  0  0  0  0  0  0  0
  -15.7419   49.6699    6.3060 C   0  0  0  0  0  0  0  0  0  0  0  0
  -15.9920   51.3770    1.8710 C   0  0  0  0  0  0  0  0  0  0  0  0
  -14.3941   53.0480   -2.0620 C   0  0  0  0  0  0  0  0  0  0  0  0
  -14.3310   50.5579   -0.7679 C   0  0  0  0  0  0  0  0  0  0  0  0
  -16.1290   51.0550    3.3361 C   0  0  0  0  0  0  0  0  0  0  0  0
  -11.4951   58.2310   -0.3821 C   0  0  0  0  0  0  0  0  0  0  0  0
  -12.7259   58.4410   -0.9839 C   0  0  0  0  0  0  0  0  0  0  0  0
  -13.5640   56.3489   -0.1190 C   0  0  0  0  0  0  0  0  0  0  0  0
   -9.5350   59.3700    0.2669 O   0  5  0  0  0  0  0  0  0  0  0  0
  -10.4231   59.2480   -0.5429 C   0  0  0  0  0  0  0  0  0  0  0  0
  -10.5289   59.9970   -1.6279 O   0  0  0  0  0  0  0  0  0  0  0  0
  -11.3059   57.0550    0.3700 C   0  0  0  0  0  0  0  0  0  0  0  0
  -12.3410   56.1251    0.4980 C   0  0  0  0  0  0  0  0  0  0  0  0
  -14.7350   55.4220   -0.0290 C   0  0  0  0  0  0  0  0  0  0  0  0
  -14.5980   53.9880    0.2801 N   0  0  0  0  0  0  0  0  0  0  0  0
  -14.6760   53.4700    1.5500 C   0  0  0  0  0  0  0  0  0  0  0  0
  -14.7951   54.1139    2.5770 O   0  0  0  0  0  0  0  0  0  0  0  0
  -14.9900   50.2181    3.7350 N   0  0  0  0  0  0  0  0  0  0  0  0
  -13.7220   50.9690    3.7450 C   0  0  0  0  0  0  0  0  0  0  0  0
  -13.3721   51.3670    2.3120 C   0  0  0  0  0  0  0  0  0  0  0  0
  -15.2230   48.9680    4.7600 S   0  0  0  0  0  0  0  0  0  0  0  0
  -13.9479   48.3580    4.9691 O   0  0  0  0  0  0  0  0  0  0  0  0
  -16.2960   48.1909    4.2258 O   0  0  0  0  0  0  0  0  0  0  0  0
  -14.7339   50.0581    7.1890 C   0  0  0  0  0  0  0  0  0  0  0  0
  -15.0629   50.6141    8.4160 C   0  0  0  0  0  0  0  0  0  0  0  0
  -16.3850   50.7869    8.7729 C   0  0  0  0  0  0  0  0  0  0  0  0
  -17.4030   50.4071    7.9079 C   0  0  0  0  0  0  0  0  0  0  0  0
  -17.0851   49.8511    6.6780 C   0  0  0  0  0  0  0  0  0  0  0  0
  -18.3881   49.3930    5.6340 Br  0  0  0  0  0  0  0  0  0  0  0  0
  -14.2420   50.6551   -2.1440 C   0  0  0  0  0  0  0  0  0  0  0  0
  -14.0800   49.0639   -3.1580 Br  0  0  0  0  0  0  0  0  0  0  0  0
  -14.2740   51.8740   -2.8020 C   0  0  0  0  0  0  0  0  0  0  0  0
  -13.7371   57.5169   -0.8500 C   0  0  0  0  0  0  0  0  0  0  0  0
  -16.6880   52.0550    1.6330 H   0  0  0  0  0  0  0  0  0  0  0  0
  -16.1610   50.5400    1.3501 H   0  0  0  0  0  0  0  0  0  0  0  0
  -16.1340   51.8998    3.8700 H   0  0  0  0  0  0  0  0  0  0  0  0
  -16.9851   50.5631    3.4981 H   0  0  0  0  0  0  0  0  0  0  0  0
  -15.3360   55.8019    0.6740 H   0  0  0  0  0  0  0  0  0  0  0  0
  -15.1980   55.4720   -0.9140 H   0  0  0  0  0  0  0  0  0  0  0  0
  -13.8200   51.7890    4.3100 H   0  0  0  0  0  0  0  0  0  0  0  0
  -12.9941   50.3980    4.1240 H   0  0  0  0  0  0  0  0  0  0  0  0
  -13.0140   50.5601    1.8430 H   0  0  0  0  0  0  0  0  0  0  0  0
  -12.6580   52.0659    2.3490 H   0  0  0  0  0  0  0  0  0  0  0  0
  -14.4130   53.9370   -2.5191 H   0  0  0  0  0  0  0  0  0  0  0  0
  -14.3100   49.6670   -0.3150 H   0  0  0  0  0  0  0  0  0  0  0  0
  -12.8810   59.2709   -1.5201 H   0  0  0  0  0  0  0  0  0  0  0  0
  -10.4270   56.8850    0.8150 H   0  0  0  0  0  0  0  0  0  0  0  0
  -12.1999   55.2939    1.0370 H   0  0  0  0  0  0  0  0  0  0  0  0
  -13.7740   49.9351    6.9369 H   0  0  0  0  0  0  0  0  0  0  0  0
  -14.3380   50.8909    9.0459 H   0  0  0  0  0  0  0  0  0  0  0  0
  -16.6110   51.1891    9.6599 H   0  0  0  0  0  0  0  0  0  0  0  0
  -18.3600   50.5341    8.1709 H   0  0  0  0  0  0  0  0  0  0  0  0
  -14.2110   51.9110   -3.7989 H   0  0  0  0  0  0  0  0  0  0  0  0
  -14.6179   57.6911   -1.2899 H   0  0  0  0  0  0  0  0  0  0  0  0
  1  2  1  0
  1  5  1  0
  1 19  1  0
  1 23  1  0
  2  3  2  0
  2  7  1  0
  3  6  1  0
  3 18  1  0
  4 24  1  0
  4 27  2  0
  4 31  1  0
  5  8  1  0
  6 35  2  0
  7 33  2  0
  8 21  1  0
  9 10  2  0
  9 13  1  0
  9 15  1  0
 10 36  1  0
 11 16  1  0
 11 17  1  0
 11 36  2  0
 12 13  1  0
 13 14  2  0
 15 16  2  0
 17 18  1  0
 18 19  1  0
 19 20  2  0
 21 22  1  0
 21 24  1  0
 22 23  1  0
 24 25  2  0
 24 26  2  0
 27 28  1  0
 28 29  2  0
 29 30  1  0
 30 31  2  0
 31 32  1  0
 33 34  1  0
 33 35  1  0
  5 37  1  0
  5 38  1  0
  6 47  1  0
  7 48  1  0
  8 39  1  0
  8 40  1  0
 10 49  1  0
 15 50  1  0
 16 51  1  0
 17 41  1  0
 17 42  1  0
 22 43  1  0
 22 44  1  0
 23 45  1  0
 23 46  1  0
 27 52  1  0
 28 53  1  0
 29 54  1  0
 30 55  1  0
 35 56  1  0
 36 57  1  0
M  CHG  1  12  -1
M  END
>  <IC50>
655

>  <Total Formal Charge>
-1

>  <Protein>
5Q0W

>  <Favorite_cresset>
false

>  <Protein_cresset>
5Q0W [Unassociated]

>  <MW_cresset>
633.3

>  <#Atoms_cresset>
36

>  <SlogP_cresset>
5.3

>  <TPSA_cresset>
97.8

>  <Flexibility_cresset>
5.2

>  <HBA_cresset>
7

>  <HBD_cresset>
0

>  <Rof5_cresset>
2

>  <Confs_cresset>
0

>  <Poses_cresset>
0

>  <Activity (IC50)_cresset>
6.18

>  <LE (IC50)_cresset>
0.240

>  <LipE (IC50)_cresset>
0.9

$$$$
